gem5 Simulator System.  http://gem5.org
gem5 is copyrighted software; use the --copyright option for details.

gem5 compiled Apr  1 2022 17:17:52
gem5 started Apr  1 2022 18:52:30
gem5 executing on ubuntu, pid 212588
command line: /home/oneshot/work/gem5-project/gem5-aladdin/src/aladdin/../../build/X86/gem5.opt --debug-flags=HybridDatapath,Aladdin --outdir=/home/oneshot/work/gem5-project/gem5-aladdin/src/aladdin/integration-test/with-cpu/test_load_store/outputs --stats-db-file=stats.db /home/oneshot/work/gem5-project/gem5-aladdin/src/aladdin/../../configs/aladdin/aladdin_se.py --num-cpus=1 --enable_prefetchers --mem-size=4GB --mem-type=DDR3_1600_8x8 --sys-clock=1GHz --cpu-type=DerivO3CPU --caches --cacheline_size=64 --accel_cfg_file=/home/oneshot/work/gem5-project/gem5-aladdin/src/aladdin/integration-test/with-cpu/test_load_store/gem5.cfg -c /home/oneshot/work/gem5-project/gem5-aladdin/src/aladdin/integration-test/with-cpu/test_load_store/test_load_store

Global frequency set at 1000000000000 ticks per second
-------------------------------
      Setting ScratchPad       
-------------------------------
      0: system: Registered accelerator 16777216
      0: system.test_load_store_datapath: Registering stats.
**** REAL SIMULATION ****
21262000: system.test_load_store_datapath: Inserting array label mapping store_vals -> vpn 0x6d0810, size 8192.
21262000: system.test_load_store_datapath: Mapping vaddr 0x6d0810 -> paddr 0xd2810.
21262000: system.test_load_store_datapath: Inserting TLB entry vpn 0x6d0000 -> ppn 0xd2000.
21262000: system.test_load_store_datapath: Mapping vaddr 0x6d1810 -> paddr 0xd4810.
21262000: system.test_load_store_datapath: Inserting TLB entry vpn 0x6d1000 -> ppn 0xd4000.
21262000: system.test_load_store_datapath: Mapping vaddr 0x6d2810 -> paddr 0xd5810.
21262000: system.test_load_store_datapath: Inserting TLB entry vpn 0x6d2000 -> ppn 0xd5000.
21311000: system.test_load_store_datapath: Inserting array label mapping store_loc -> vpn 0x6d2820, size 8192.
21311000: system.test_load_store_datapath: Mapping vaddr 0x6d2820 -> paddr 0xd5820.
21311000: system.test_load_store_datapath: Inserting TLB entry vpn 0x6d2000 -> ppn 0xd5000.
21311000: system.test_load_store_datapath: Mapping vaddr 0x6d3820 -> paddr 0xd6820.
21311000: system.test_load_store_datapath: Inserting TLB entry vpn 0x6d3000 -> ppn 0xd6000.
21311000: system.test_load_store_datapath: Mapping vaddr 0x6d4820 -> paddr 0xd7820.
21311000: system.test_load_store_datapath: Inserting TLB entry vpn 0x6d4000 -> ppn 0xd7000.
Invoking accelerator!
24350000: system.test_load_store_datapath: Activating accelerator id 16777216
-------------------------------
      Generating DDDG          
-------------------------------
-------------------------------
Num of Nodes: 16389
Num of Edges: 36868
Num of Reg Edges: 20480
Num of MEM Edges: 0
Num of Control Edges: 16388
-------------------------------
-------------------------------
    Initializing BaseDatapath      
-------------------------------
 Top level: store_kernel
=============================================
      Optimizing...            ./outputs/test_load_store
=============================================
-------------------------------
  Remove PHI and Convert Nodes 
-------------------------------
  Removing 12288 edges.
  Adding 8188 new edges.
  Removing 0 isolated nodes.
-------------------------------
  Remove Induction Dependence  
-------------------------------
-------------------------------
       Init Base Address       
-------------------------------
-------------------------------
     Init DMA Base Address     
-------------------------------
-------------------------------
        Mem to Reg Conv        
-------------------------------
-------------------------------
      ScratchPad Partition     
-------------------------------
-------------------------------
         Loop Flatten          
-------------------------------
  Removing 0 isolated nodes.
  Removing 0 isolated nodes.
-------------------------------
         Loop Unrolling        
-------------------------------
  Adding 26626 new edges.
  Removing 1920 isolated nodes.
  Removing 0 isolated nodes.
-------------------------------
          Load Buffer          
-------------------------------
  Adding 0 new edges.
  Removing 0 edges.
  Removing 0 isolated nodes.
-------------------------------
          Store Buffer         
-------------------------------
  Adding 0 new edges.
  Removing 0 isolated nodes.
  Removing 0 isolated nodes.
-------------------------------
    Remove Repeated Stores     
-------------------------------
-------------------------------
      Memory Ambiguation       
-------------------------------
  Adding 0 new edges.
-------------------------------
     Tree Height Reduction     
-------------------------------
  Removing 0 edges.
  Adding 0 new edges.
  Removing 0 isolated nodes.
-------------------------------
  Fuse register loads/stores   
-------------------------------
  Removing 0 edges.
  Adding 0 new edges.
  Removing 0 isolated nodes.
-------------------------------
   Fuse consecutive branches   
-------------------------------
  Removing 0 edges.
  Adding 0 new edges.
  Removing 0 isolated nodes.
-------------------------------
      Per Loop Pipelining      
-------------------------------
-------------------------------
         Loop Pipelining        
-------------------------------
=============================================
      Scheduling...            ./outputs/test_load_store
=============================================
  Total connected nodes: 12420
  Total edges: 51458
=============================================
24356000: system.test_load_store_datapath: issueTLBRequestTiming for trace addr: 0x226e7d0
24356000: system.test_load_store_datapath: node: 6, trace vaddr = 226e7d0, is translating
24356000: system.test_load_store_datapath: issueTLBRequestTiming for trace addr: 0x226e800
24356000: system.test_load_store_datapath: node: 102, trace vaddr = 226e800, is translating
24556000: system.test_load_store_datapath: completeTLBRequest for paddr: 0x226e800 ReadReq
24556000: system.test_load_store_datapath: completeTLBRequest for paddr: 0x226e7d0 ReadReq
24558000: system.test_load_store_datapath: issueTLBRequestTiming for trace addr: 0x226e7d0
24558000: system.test_load_store_datapath: node: 6, trace vaddr = 226e7d0, is translating
24558000: system.test_load_store_datapath: issueTLBRequestTiming for trace addr: 0x226e800
24558000: system.test_load_store_datapath: node: 102, trace vaddr = 226e800, is translating
24560000: system.test_load_store_datapath: completeTLBRequest for paddr: 0x226e7d0 ReadReq
24560000: system.test_load_store_datapath: Translated: vaddr = 0x226e7d0, paddr = 0xd2810
24560000: system.test_load_store_datapath: completeTLBRequest for paddr: 0x226e800 ReadReq
24560000: system.test_load_store_datapath: Translated: vaddr = 0x226e800, paddr = 0xd2840
24562000: system.test_load_store_datapath: node:6, vaddr = 0x226e7d0, paddr = 0xd2810 is accessing cache
24562000: system.test_load_store_datapath: node:102, vaddr = 0x226e800, paddr = 0xd2840 is accessing cache
24578000: system.test_load_store_datapath: updateCacheRequestStatusOnResp for node_id 6, ReadResp [d2810:d2813]
24578000: system.test_load_store_datapath: setting load cache queue entry for vaddr 0x226e7d0 to Returned.
24582000: system.test_load_store_datapath: issueTLBRequestTiming for trace addr: 0x22707e0
24582000: system.test_load_store_datapath: node: 8, trace vaddr = 22707e0, is translating
24582000: system.test_load_store_datapath: issueTLBRequestTiming for trace addr: 0x22707e4
24582000: system.test_load_store_datapath: node: 16, trace vaddr = 22707e4, is translating
24582000: system.test_load_store_datapath: issueTLBRequestTiming for trace addr: 0x22707e8
24582000: system.test_load_store_datapath: node: 24, trace vaddr = 22707e8, is translating
24584000: system.test_load_store_datapath: issueTLBRequestTiming for trace addr: 0x22707ec
24584000: system.test_load_store_datapath: node: 32, trace vaddr = 22707ec, is translating
24584000: system.test_load_store_datapath: issueTLBRequestTiming for trace addr: 0x22707f0
24584000: system.test_load_store_datapath: node: 40, trace vaddr = 22707f0, is translating
24584000: system.test_load_store_datapath: issueTLBRequestTiming for trace addr: 0x22707f4
24584000: system.test_load_store_datapath: node: 48, trace vaddr = 22707f4, is translating
24584000: system.test_load_store_datapath: updateCacheRequestStatusOnResp for node_id 102, ReadResp [d2840:d2843]
24584000: system.test_load_store_datapath: setting load cache queue entry for vaddr 0x226e800 to Returned.
24586000: system.test_load_store_datapath: issueTLBRequestTiming for trace addr: 0x22707f8
24586000: system.test_load_store_datapath: node: 56, trace vaddr = 22707f8, is translating
24586000: system.test_load_store_datapath: issueTLBRequestTiming for trace addr: 0x22707fc
24586000: system.test_load_store_datapath: node: 64, trace vaddr = 22707fc, is translating
24586000: system.test_load_store_datapath: issueTLBRequestTiming for trace addr: 0x2270800
24586000: system.test_load_store_datapath: node: 72, trace vaddr = 2270800, is translating
24588000: system.test_load_store_datapath: issueTLBRequestTiming for trace addr: 0x2270810
24588000: system.test_load_store_datapath: node: 104, trace vaddr = 2270810, is translating
24588000: system.test_load_store_datapath: issueTLBRequestTiming for trace addr: 0x2270814
24588000: system.test_load_store_datapath: node: 112, trace vaddr = 2270814, is translating
24588000: system.test_load_store_datapath: issueTLBRequestTiming for trace addr: 0x2270818
24588000: system.test_load_store_datapath: node: 120, trace vaddr = 2270818, is translating
24590000: system.test_load_store_datapath: issueTLBRequestTiming for trace addr: 0x227081c
24590000: system.test_load_store_datapath: node: 128, trace vaddr = 227081c, is translating
24590000: system.test_load_store_datapath: issueTLBRequestTiming for trace addr: 0x2270804
24590000: system.test_load_store_datapath: node: 80, trace vaddr = 2270804, is translating
24590000: system.test_load_store_datapath: issueTLBRequestTiming for trace addr: 0x2270808
24590000: system.test_load_store_datapath: node: 88, trace vaddr = 2270808, is translating
24592000: system.test_load_store_datapath: issueTLBRequestTiming for trace addr: 0x227080c
24592000: system.test_load_store_datapath: node: 96, trace vaddr = 227080c, is translating
24782000: system.test_load_store_datapath: completeTLBRequest for paddr: 0x227080c WriteReq
24782000: system.test_load_store_datapath: completeTLBRequest for paddr: 0x2270808 WriteReq
24782000: system.test_load_store_datapath: completeTLBRequest for paddr: 0x2270804 WriteReq
24782000: system.test_load_store_datapath: completeTLBRequest for paddr: 0x227081c WriteReq
24782000: system.test_load_store_datapath: completeTLBRequest for paddr: 0x2270818 WriteReq
24782000: system.test_load_store_datapath: completeTLBRequest for paddr: 0x2270814 WriteReq
24782000: system.test_load_store_datapath: completeTLBRequest for paddr: 0x2270810 WriteReq
24782000: system.test_load_store_datapath: completeTLBRequest for paddr: 0x2270800 WriteReq
24782000: system.test_load_store_datapath: completeTLBRequest for paddr: 0x22707fc WriteReq
24782000: system.test_load_store_datapath: completeTLBRequest for paddr: 0x22707f8 WriteReq
24782000: system.test_load_store_datapath: completeTLBRequest for paddr: 0x22707f4 WriteReq
24782000: system.test_load_store_datapath: completeTLBRequest for paddr: 0x22707f0 WriteReq
24782000: system.test_load_store_datapath: completeTLBRequest for paddr: 0x22707ec WriteReq
24782000: system.test_load_store_datapath: completeTLBRequest for paddr: 0x22707e8 WriteReq
24782000: system.test_load_store_datapath: completeTLBRequest for paddr: 0x22707e4 WriteReq
24782000: system.test_load_store_datapath: completeTLBRequest for paddr: 0x22707e0 WriteReq
24784000: system.test_load_store_datapath: issueTLBRequestTiming for trace addr: 0x2270810
24784000: system.test_load_store_datapath: node: 104, trace vaddr = 2270810, is translating
24784000: system.test_load_store_datapath: issueTLBRequestTiming for trace addr: 0x2270814
24784000: system.test_load_store_datapath: node: 112, trace vaddr = 2270814, is translating
24784000: system.test_load_store_datapath: issueTLBRequestTiming for trace addr: 0x2270818
24784000: system.test_load_store_datapath: node: 120, trace vaddr = 2270818, is translating
24786000: system.test_load_store_datapath: issueTLBRequestTiming for trace addr: 0x227081c
24786000: system.test_load_store_datapath: node: 128, trace vaddr = 227081c, is translating
24786000: system.test_load_store_datapath: issueTLBRequestTiming for trace addr: 0x22707e0
24786000: system.test_load_store_datapath: node: 8, trace vaddr = 22707e0, is translating
24786000: system.test_load_store_datapath: issueTLBRequestTiming for trace addr: 0x22707e4
24786000: system.test_load_store_datapath: node: 16, trace vaddr = 22707e4, is translating
24786000: system.test_load_store_datapath: completeTLBRequest for paddr: 0x2270810 WriteReq
24786000: system.test_load_store_datapath: Translated: vaddr = 0x2270810, paddr = 0xd5850
24786000: system.test_load_store_datapath: completeTLBRequest for paddr: 0x2270814 WriteReq
24786000: system.test_load_store_datapath: Translated: vaddr = 0x2270814, paddr = 0xd5854
24786000: system.test_load_store_datapath: completeTLBRequest for paddr: 0x2270818 WriteReq
24786000: system.test_load_store_datapath: Translated: vaddr = 0x2270818, paddr = 0xd5858
24788000: system.test_load_store_datapath: node:104, vaddr = 0x2270810, paddr = 0xd5850 is accessing cache
24788000: system.test_load_store_datapath: node:112, vaddr = 0x2270814, paddr = 0xd5854 is accessing cache
24788000: system.test_load_store_datapath: node:120, vaddr = 0x2270818, paddr = 0xd5858 is accessing cache
24788000: system.test_load_store_datapath: issueTLBRequestTiming for trace addr: 0x22707e8
24788000: system.test_load_store_datapath: node: 24, trace vaddr = 22707e8, is translating
24788000: system.test_load_store_datapath: issueTLBRequestTiming for trace addr: 0x22707ec
24788000: system.test_load_store_datapath: node: 32, trace vaddr = 22707ec, is translating
24788000: system.test_load_store_datapath: issueTLBRequestTiming for trace addr: 0x22707f0
24788000: system.test_load_store_datapath: node: 40, trace vaddr = 22707f0, is translating
24788000: system.test_load_store_datapath: completeTLBRequest for paddr: 0x227081c WriteReq
24788000: system.test_load_store_datapath: Translated: vaddr = 0x227081c, paddr = 0xd585c
24788000: system.test_load_store_datapath: completeTLBRequest for paddr: 0x22707e0 WriteReq
24788000: system.test_load_store_datapath: Translated: vaddr = 0x22707e0, paddr = 0xd5820
24788000: system.test_load_store_datapath: completeTLBRequest for paddr: 0x22707e4 WriteReq
24788000: system.test_load_store_datapath: Translated: vaddr = 0x22707e4, paddr = 0xd5824
24790000: system.test_load_store_datapath: node:128, vaddr = 0x227081c, paddr = 0xd585c is accessing cache
24790000: system.test_load_store_datapath: node:8, vaddr = 0x22707e0, paddr = 0xd5820 is accessing cache
24790000: system.test_load_store_datapath: node:16, vaddr = 0x22707e4, paddr = 0xd5824 is accessing cache
24790000: system.test_load_store_datapath: issueTLBRequestTiming for trace addr: 0x22707f4
24790000: system.test_load_store_datapath: node: 48, trace vaddr = 22707f4, is translating
24790000: system.test_load_store_datapath: issueTLBRequestTiming for trace addr: 0x22707f8
24790000: system.test_load_store_datapath: node: 56, trace vaddr = 22707f8, is translating
24790000: system.test_load_store_datapath: issueTLBRequestTiming for trace addr: 0x22707fc
24790000: system.test_load_store_datapath: node: 64, trace vaddr = 22707fc, is translating
24790000: system.test_load_store_datapath: completeTLBRequest for paddr: 0x22707e8 WriteReq
24790000: system.test_load_store_datapath: Translated: vaddr = 0x22707e8, paddr = 0xd5828
24790000: system.test_load_store_datapath: completeTLBRequest for paddr: 0x22707ec WriteReq
24790000: system.test_load_store_datapath: Translated: vaddr = 0x22707ec, paddr = 0xd582c
24790000: system.test_load_store_datapath: completeTLBRequest for paddr: 0x22707f0 WriteReq
24790000: system.test_load_store_datapath: Translated: vaddr = 0x22707f0, paddr = 0xd5830
24792000: system.test_load_store_datapath: node:24, vaddr = 0x22707e8, paddr = 0xd5828 is accessing cache
24792000: system.test_load_store_datapath: node:32, vaddr = 0x22707ec, paddr = 0xd582c is accessing cache
24792000: system.test_load_store_datapath: node:40, vaddr = 0x22707f0, paddr = 0xd5830 is accessing cache
24792000: system.test_load_store_datapath: issueTLBRequestTiming for trace addr: 0x2270800
24792000: system.test_load_store_datapath: node: 72, trace vaddr = 2270800, is translating
24792000: system.test_load_store_datapath: issueTLBRequestTiming for trace addr: 0x2270804
24792000: system.test_load_store_datapath: node: 80, trace vaddr = 2270804, is translating
24792000: system.test_load_store_datapath: issueTLBRequestTiming for trace addr: 0x2270808
24792000: system.test_load_store_datapath: node: 88, trace vaddr = 2270808, is translating
24792000: system.test_load_store_datapath: completeTLBRequest for paddr: 0x22707f4 WriteReq
24792000: system.test_load_store_datapath: Translated: vaddr = 0x22707f4, paddr = 0xd5834
24792000: system.test_load_store_datapath: completeTLBRequest for paddr: 0x22707f8 WriteReq
24792000: system.test_load_store_datapath: Translated: vaddr = 0x22707f8, paddr = 0xd5838
24792000: system.test_load_store_datapath: completeTLBRequest for paddr: 0x22707fc WriteReq
24792000: system.test_load_store_datapath: Translated: vaddr = 0x22707fc, paddr = 0xd583c
24794000: system.test_load_store_datapath: node:48, vaddr = 0x22707f4, paddr = 0xd5834 is accessing cache
24794000: system.test_load_store_datapath: node:56, vaddr = 0x22707f8, paddr = 0xd5838 is accessing cache
24794000: system.test_load_store_datapath: node:64, vaddr = 0x22707fc, paddr = 0xd583c is accessing cache
24794000: system.test_load_store_datapath: issueTLBRequestTiming for trace addr: 0x227080c
24794000: system.test_load_store_datapath: node: 96, trace vaddr = 227080c, is translating
24794000: system.test_load_store_datapath: completeTLBRequest for paddr: 0x2270800 WriteReq
24794000: system.test_load_store_datapath: Translated: vaddr = 0x2270800, paddr = 0xd5840
24794000: system.test_load_store_datapath: completeTLBRequest for paddr: 0x2270804 WriteReq
24794000: system.test_load_store_datapath: Translated: vaddr = 0x2270804, paddr = 0xd5844
24794000: system.test_load_store_datapath: completeTLBRequest for paddr: 0x2270808 WriteReq
24794000: system.test_load_store_datapath: Translated: vaddr = 0x2270808, paddr = 0xd5848
24796000: system.test_load_store_datapath: node:72, vaddr = 0x2270800, paddr = 0xd5840 is accessing cache
24796000: system.test_load_store_datapath: node:80, vaddr = 0x2270804, paddr = 0xd5844 is accessing cache
24796000: system.test_load_store_datapath: node:88, vaddr = 0x2270808, paddr = 0xd5848 is accessing cache
24796000: system.test_load_store_datapath: completeTLBRequest for paddr: 0x227080c WriteReq
24796000: system.test_load_store_datapath: Translated: vaddr = 0x227080c, paddr = 0xd584c
24798000: system.test_load_store_datapath: node:96, vaddr = 0x227080c, paddr = 0xd584c is accessing cache
24804000: system.test_load_store_datapath: updateCacheRequestStatusOnResp for node_id 104, WriteResp [d5850:d5853]
24804000: system.test_load_store_datapath: setting store cache queue entry for vaddr 0x2270810 to Returned.
24808000: system.test_load_store_datapath: updateCacheRequestStatusOnResp for node_id 112, WriteResp [d5854:d5857]
24808000: system.test_load_store_datapath: setting store cache queue entry for vaddr 0x2270814 to Returned.
24808001: system.test_load_store_datapath: updateCacheRequestStatusOnResp for node_id 120, WriteResp [d5858:d585b]
24808001: system.test_load_store_datapath: setting store cache queue entry for vaddr 0x2270818 to Returned.
24808002: system.test_load_store_datapath: updateCacheRequestStatusOnResp for node_id 128, WriteResp [d585c:d585f]
24808002: system.test_load_store_datapath: setting store cache queue entry for vaddr 0x227081c to Returned.
24808003: system.test_load_store_datapath: updateCacheRequestStatusOnResp for node_id 72, WriteResp [d5840:d5843]
24808003: system.test_load_store_datapath: setting store cache queue entry for vaddr 0x2270800 to Returned.
24808004: system.test_load_store_datapath: updateCacheRequestStatusOnResp for node_id 80, WriteResp [d5844:d5847]
24808004: system.test_load_store_datapath: setting store cache queue entry for vaddr 0x2270804 to Returned.
24808005: system.test_load_store_datapath: updateCacheRequestStatusOnResp for node_id 88, WriteResp [d5848:d584b]
24808005: system.test_load_store_datapath: setting store cache queue entry for vaddr 0x2270808 to Returned.
24808006: system.test_load_store_datapath: updateCacheRequestStatusOnResp for node_id 96, WriteResp [d584c:d584f]
24808006: system.test_load_store_datapath: setting store cache queue entry for vaddr 0x227080c to Returned.
24820000: system.test_load_store_datapath: updateCacheRequestStatusOnResp for node_id 8, WriteResp [d5820:d5823]
24820000: system.test_load_store_datapath: setting store cache queue entry for vaddr 0x22707e0 to Returned.
24824000: system.test_load_store_datapath: updateCacheRequestStatusOnResp for node_id 16, WriteResp [d5824:d5827]
24824000: system.test_load_store_datapath: setting store cache queue entry for vaddr 0x22707e4 to Returned.
24824001: system.test_load_store_datapath: updateCacheRequestStatusOnResp for node_id 24, WriteResp [d5828:d582b]
24824001: system.test_load_store_datapath: setting store cache queue entry for vaddr 0x22707e8 to Returned.
24824002: system.test_load_store_datapath: updateCacheRequestStatusOnResp for node_id 32, WriteResp [d582c:d582f]
24824002: system.test_load_store_datapath: setting store cache queue entry for vaddr 0x22707ec to Returned.
24824003: system.test_load_store_datapath: updateCacheRequestStatusOnResp for node_id 40, WriteResp [d5830:d5833]
24824003: system.test_load_store_datapath: setting store cache queue entry for vaddr 0x22707f0 to Returned.
24824004: system.test_load_store_datapath: updateCacheRequestStatusOnResp for node_id 48, WriteResp [d5834:d5837]
24824004: system.test_load_store_datapath: setting store cache queue entry for vaddr 0x22707f4 to Returned.
24824005: system.test_load_store_datapath: updateCacheRequestStatusOnResp for node_id 56, WriteResp [d5838:d583b]
24824005: system.test_load_store_datapath: setting store cache queue entry for vaddr 0x22707f8 to Returned.
24824006: system.test_load_store_datapath: updateCacheRequestStatusOnResp for node_id 64, WriteResp [d583c:d583f]
24824006: system.test_load_store_datapath: setting store cache queue entry for vaddr 0x22707fc to Returned.
24830000: system.test_load_store_datapath: issueTLBRequestTiming for trace addr: 0x226e810
24830000: system.test_load_store_datapath: node: 134, trace vaddr = 226e810, is translating
24830000: system.test_load_store_datapath: issueTLBRequestTiming for trace addr: 0x226e840
24830000: system.test_load_store_datapath: node: 230, trace vaddr = 226e840, is translating
24832000: system.test_load_store_datapath: completeTLBRequest for paddr: 0x226e810 ReadReq
24832000: system.test_load_store_datapath: Translated: vaddr = 0x226e810, paddr = 0xd2850
24832000: system.test_load_store_datapath: completeTLBRequest for paddr: 0x226e840 ReadReq
24832000: system.test_load_store_datapath: Translated: vaddr = 0x226e840, paddr = 0xd2880
24834000: system.test_load_store_datapath: node:134, vaddr = 0x226e810, paddr = 0xd2850 is accessing cache
24834000: system.test_load_store_datapath: node:230, vaddr = 0x226e840, paddr = 0xd2880 is accessing cache
24836000: system.test_load_store_datapath: updateCacheRequestStatusOnResp for node_id 134, ReadResp [d2850:d2853]
24836000: system.test_load_store_datapath: setting load cache queue entry for vaddr 0x226e810 to Returned.
24836001: system.test_load_store_datapath: updateCacheRequestStatusOnResp for node_id 230, ReadResp [d2880:d2883]
24836001: system.test_load_store_datapath: setting load cache queue entry for vaddr 0x226e840 to Returned.
24840000: system.test_load_store_datapath: issueTLBRequestTiming for trace addr: 0x2270820
24840000: system.test_load_store_datapath: node: 136, trace vaddr = 2270820, is translating
24840000: system.test_load_store_datapath: issueTLBRequestTiming for trace addr: 0x2270824
24840000: system.test_load_store_datapath: node: 144, trace vaddr = 2270824, is translating
24840000: system.test_load_store_datapath: issueTLBRequestTiming for trace addr: 0x2270828
24840000: system.test_load_store_datapath: node: 152, trace vaddr = 2270828, is translating
24842000: system.test_load_store_datapath: issueTLBRequestTiming for trace addr: 0x227082c
24842000: system.test_load_store_datapath: node: 160, trace vaddr = 227082c, is translating
24842000: system.test_load_store_datapath: issueTLBRequestTiming for trace addr: 0x2270830
24842000: system.test_load_store_datapath: node: 168, trace vaddr = 2270830, is translating
24842000: system.test_load_store_datapath: issueTLBRequestTiming for trace addr: 0x2270834
24842000: system.test_load_store_datapath: node: 176, trace vaddr = 2270834, is translating
24842000: system.test_load_store_datapath: completeTLBRequest for paddr: 0x2270820 WriteReq
24842000: system.test_load_store_datapath: Translated: vaddr = 0x2270820, paddr = 0xd5860
24842000: system.test_load_store_datapath: completeTLBRequest for paddr: 0x2270824 WriteReq
24842000: system.test_load_store_datapath: Translated: vaddr = 0x2270824, paddr = 0xd5864
24842000: system.test_load_store_datapath: completeTLBRequest for paddr: 0x2270828 WriteReq
24842000: system.test_load_store_datapath: Translated: vaddr = 0x2270828, paddr = 0xd5868
24844000: system.test_load_store_datapath: node:136, vaddr = 0x2270820, paddr = 0xd5860 is accessing cache
24844000: system.test_load_store_datapath: node:144, vaddr = 0x2270824, paddr = 0xd5864 is accessing cache
24844000: system.test_load_store_datapath: node:152, vaddr = 0x2270828, paddr = 0xd5868 is accessing cache
24844000: system.test_load_store_datapath: issueTLBRequestTiming for trace addr: 0x2270838
24844000: system.test_load_store_datapath: node: 184, trace vaddr = 2270838, is translating
24844000: system.test_load_store_datapath: issueTLBRequestTiming for trace addr: 0x227083c
24844000: system.test_load_store_datapath: node: 192, trace vaddr = 227083c, is translating
24844000: system.test_load_store_datapath: issueTLBRequestTiming for trace addr: 0x2270840
24844000: system.test_load_store_datapath: node: 200, trace vaddr = 2270840, is translating
24844000: system.test_load_store_datapath: completeTLBRequest for paddr: 0x227082c WriteReq
24844000: system.test_load_store_datapath: Translated: vaddr = 0x227082c, paddr = 0xd586c
24844000: system.test_load_store_datapath: completeTLBRequest for paddr: 0x2270830 WriteReq
24844000: system.test_load_store_datapath: Translated: vaddr = 0x2270830, paddr = 0xd5870
24844000: system.test_load_store_datapath: completeTLBRequest for paddr: 0x2270834 WriteReq
24844000: system.test_load_store_datapath: Translated: vaddr = 0x2270834, paddr = 0xd5874
24846000: system.test_load_store_datapath: node:160, vaddr = 0x227082c, paddr = 0xd586c is accessing cache
24846000: system.test_load_store_datapath: node:168, vaddr = 0x2270830, paddr = 0xd5870 is accessing cache
24846000: system.test_load_store_datapath: node:176, vaddr = 0x2270834, paddr = 0xd5874 is accessing cache
24846000: system.test_load_store_datapath: issueTLBRequestTiming for trace addr: 0x2270844
24846000: system.test_load_store_datapath: node: 208, trace vaddr = 2270844, is translating
24846000: system.test_load_store_datapath: issueTLBRequestTiming for trace addr: 0x2270848
24846000: system.test_load_store_datapath: node: 216, trace vaddr = 2270848, is translating
24846000: system.test_load_store_datapath: issueTLBRequestTiming for trace addr: 0x227084c
24846000: system.test_load_store_datapath: node: 224, trace vaddr = 227084c, is translating
24846000: system.test_load_store_datapath: completeTLBRequest for paddr: 0x2270838 WriteReq
24846000: system.test_load_store_datapath: Translated: vaddr = 0x2270838, paddr = 0xd5878
24846000: system.test_load_store_datapath: completeTLBRequest for paddr: 0x227083c WriteReq
24846000: system.test_load_store_datapath: Translated: vaddr = 0x227083c, paddr = 0xd587c
24846000: system.test_load_store_datapath: completeTLBRequest for paddr: 0x2270840 WriteReq
24846000: system.test_load_store_datapath: Translated: vaddr = 0x2270840, paddr = 0xd5880
24846000: system.test_load_store_datapath: updateCacheRequestStatusOnResp for node_id 136, WriteResp [d5860:d5863]
24846000: system.test_load_store_datapath: setting store cache queue entry for vaddr 0x2270820 to Returned.
24846001: system.test_load_store_datapath: updateCacheRequestStatusOnResp for node_id 144, WriteResp [d5864:d5867]
24846001: system.test_load_store_datapath: setting store cache queue entry for vaddr 0x2270824 to Returned.
24846002: system.test_load_store_datapath: updateCacheRequestStatusOnResp for node_id 152, WriteResp [d5868:d586b]
24846002: system.test_load_store_datapath: setting store cache queue entry for vaddr 0x2270828 to Returned.
24848000: system.test_load_store_datapath: updateCacheRequestStatusOnResp for node_id 160, WriteResp [d586c:d586f]
24848000: system.test_load_store_datapath: setting store cache queue entry for vaddr 0x227082c to Returned.
24848000: system.test_load_store_datapath: node:184, vaddr = 0x2270838, paddr = 0xd5878 is accessing cache
24848000: system.test_load_store_datapath: node:192, vaddr = 0x227083c, paddr = 0xd587c is accessing cache
24848000: system.test_load_store_datapath: node:200, vaddr = 0x2270840, paddr = 0xd5880 is accessing cache
24848000: system.test_load_store_datapath: issueTLBRequestTiming for trace addr: 0x2270850
24848000: system.test_load_store_datapath: node: 232, trace vaddr = 2270850, is translating
24848000: system.test_load_store_datapath: issueTLBRequestTiming for trace addr: 0x2270854
24848000: system.test_load_store_datapath: node: 240, trace vaddr = 2270854, is translating
24848000: system.test_load_store_datapath: issueTLBRequestTiming for trace addr: 0x2270858
24848000: system.test_load_store_datapath: node: 248, trace vaddr = 2270858, is translating
24848000: system.test_load_store_datapath: completeTLBRequest for paddr: 0x2270844 WriteReq
24848000: system.test_load_store_datapath: Translated: vaddr = 0x2270844, paddr = 0xd5884
24848000: system.test_load_store_datapath: completeTLBRequest for paddr: 0x2270848 WriteReq
24848000: system.test_load_store_datapath: Translated: vaddr = 0x2270848, paddr = 0xd5888
24848000: system.test_load_store_datapath: completeTLBRequest for paddr: 0x227084c WriteReq
24848000: system.test_load_store_datapath: Translated: vaddr = 0x227084c, paddr = 0xd588c
24848001: system.test_load_store_datapath: updateCacheRequestStatusOnResp for node_id 168, WriteResp [d5870:d5873]
24848001: system.test_load_store_datapath: setting store cache queue entry for vaddr 0x2270830 to Returned.
24848002: system.test_load_store_datapath: updateCacheRequestStatusOnResp for node_id 176, WriteResp [d5874:d5877]
24848002: system.test_load_store_datapath: setting store cache queue entry for vaddr 0x2270834 to Returned.
24850000: system.test_load_store_datapath: updateCacheRequestStatusOnResp for node_id 184, WriteResp [d5878:d587b]
24850000: system.test_load_store_datapath: setting store cache queue entry for vaddr 0x2270838 to Returned.
24850000: system.test_load_store_datapath: node:208, vaddr = 0x2270844, paddr = 0xd5884 is accessing cache
24850000: system.test_load_store_datapath: node:216, vaddr = 0x2270848, paddr = 0xd5888 is accessing cache
24850000: system.test_load_store_datapath: node:224, vaddr = 0x227084c, paddr = 0xd588c is accessing cache
24850000: system.test_load_store_datapath: issueTLBRequestTiming for trace addr: 0x227085c
24850000: system.test_load_store_datapath: node: 256, trace vaddr = 227085c, is translating
24850000: system.test_load_store_datapath: completeTLBRequest for paddr: 0x2270850 WriteReq
24850000: system.test_load_store_datapath: Translated: vaddr = 0x2270850, paddr = 0xd5890
24850000: system.test_load_store_datapath: completeTLBRequest for paddr: 0x2270854 WriteReq
24850000: system.test_load_store_datapath: Translated: vaddr = 0x2270854, paddr = 0xd5894
24850000: system.test_load_store_datapath: completeTLBRequest for paddr: 0x2270858 WriteReq
24850000: system.test_load_store_datapath: Translated: vaddr = 0x2270858, paddr = 0xd5898
24850001: system.test_load_store_datapath: updateCacheRequestStatusOnResp for node_id 192, WriteResp [d587c:d587f]
24850001: system.test_load_store_datapath: setting store cache queue entry for vaddr 0x227083c to Returned.
24852000: system.test_load_store_datapath: node:232, vaddr = 0x2270850, paddr = 0xd5890 is accessing cache
24852000: system.test_load_store_datapath: node:240, vaddr = 0x2270854, paddr = 0xd5894 is accessing cache
24852000: system.test_load_store_datapath: node:248, vaddr = 0x2270858, paddr = 0xd5898 is accessing cache
24852000: system.test_load_store_datapath: completeTLBRequest for paddr: 0x227085c WriteReq
24852000: system.test_load_store_datapath: Translated: vaddr = 0x227085c, paddr = 0xd589c
24854000: system.test_load_store_datapath: node:256, vaddr = 0x227085c, paddr = 0xd589c is accessing cache
24864000: system.test_load_store_datapath: updateCacheRequestStatusOnResp for node_id 200, WriteResp [d5880:d5883]
24864000: system.test_load_store_datapath: setting store cache queue entry for vaddr 0x2270840 to Returned.
24864001: system.test_load_store_datapath: updateCacheRequestStatusOnResp for node_id 208, WriteResp [d5884:d5887]
24864001: system.test_load_store_datapath: setting store cache queue entry for vaddr 0x2270844 to Returned.
24864002: system.test_load_store_datapath: updateCacheRequestStatusOnResp for node_id 216, WriteResp [d5888:d588b]
24864002: system.test_load_store_datapath: setting store cache queue entry for vaddr 0x2270848 to Returned.
24864003: system.test_load_store_datapath: updateCacheRequestStatusOnResp for node_id 224, WriteResp [d588c:d588f]
24864003: system.test_load_store_datapath: setting store cache queue entry for vaddr 0x227084c to Returned.
24864004: system.test_load_store_datapath: updateCacheRequestStatusOnResp for node_id 232, WriteResp [d5890:d5893]
24864004: system.test_load_store_datapath: setting store cache queue entry for vaddr 0x2270850 to Returned.
24864005: system.test_load_store_datapath: updateCacheRequestStatusOnResp for node_id 240, WriteResp [d5894:d5897]
24864005: system.test_load_store_datapath: setting store cache queue entry for vaddr 0x2270854 to Returned.
24864006: system.test_load_store_datapath: updateCacheRequestStatusOnResp for node_id 248, WriteResp [d5898:d589b]
24864006: system.test_load_store_datapath: setting store cache queue entry for vaddr 0x2270858 to Returned.
24864007: system.test_load_store_datapath: updateCacheRequestStatusOnResp for node_id 256, WriteResp [d589c:d589f]
24864007: system.test_load_store_datapath: setting store cache queue entry for vaddr 0x227085c to Returned.
24870000: system.test_load_store_datapath: issueTLBRequestTiming for trace addr: 0x226e850
24870000: system.test_load_store_datapath: node: 262, trace vaddr = 226e850, is translating
24870000: system.test_load_store_datapath: issueTLBRequestTiming for trace addr: 0x226e880
24870000: system.test_load_store_datapath: node: 358, trace vaddr = 226e880, is translating
24872000: system.test_load_store_datapath: completeTLBRequest for paddr: 0x226e850 ReadReq
24872000: system.test_load_store_datapath: Translated: vaddr = 0x226e850, paddr = 0xd2890
24872000: system.test_load_store_datapath: completeTLBRequest for paddr: 0x226e880 ReadReq
24872000: system.test_load_store_datapath: Translated: vaddr = 0x226e880, paddr = 0xd28c0
24874000: system.test_load_store_datapath: node:262, vaddr = 0x226e850, paddr = 0xd2890 is accessing cache
24874000: system.test_load_store_datapath: node:358, vaddr = 0x226e880, paddr = 0xd28c0 is accessing cache
24876000: system.test_load_store_datapath: updateCacheRequestStatusOnResp for node_id 262, ReadResp [d2890:d2893]
24876000: system.test_load_store_datapath: setting load cache queue entry for vaddr 0x226e850 to Returned.
24876001: system.test_load_store_datapath: updateCacheRequestStatusOnResp for node_id 358, ReadResp [d28c0:d28c3]
24876001: system.test_load_store_datapath: setting load cache queue entry for vaddr 0x226e880 to Returned.
24880000: system.test_load_store_datapath: issueTLBRequestTiming for trace addr: 0x2270860
24880000: system.test_load_store_datapath: node: 264, trace vaddr = 2270860, is translating
24880000: system.test_load_store_datapath: issueTLBRequestTiming for trace addr: 0x2270864
24880000: system.test_load_store_datapath: node: 272, trace vaddr = 2270864, is translating
24880000: system.test_load_store_datapath: issueTLBRequestTiming for trace addr: 0x2270868
24880000: system.test_load_store_datapath: node: 280, trace vaddr = 2270868, is translating
24882000: system.test_load_store_datapath: issueTLBRequestTiming for trace addr: 0x227086c
24882000: system.test_load_store_datapath: node: 288, trace vaddr = 227086c, is translating
24882000: system.test_load_store_datapath: issueTLBRequestTiming for trace addr: 0x2270870
24882000: system.test_load_store_datapath: node: 296, trace vaddr = 2270870, is translating
24882000: system.test_load_store_datapath: issueTLBRequestTiming for trace addr: 0x2270874
24882000: system.test_load_store_datapath: node: 304, trace vaddr = 2270874, is translating
24882000: system.test_load_store_datapath: completeTLBRequest for paddr: 0x2270860 WriteReq
24882000: system.test_load_store_datapath: Translated: vaddr = 0x2270860, paddr = 0xd58a0
24882000: system.test_load_store_datapath: completeTLBRequest for paddr: 0x2270864 WriteReq
24882000: system.test_load_store_datapath: Translated: vaddr = 0x2270864, paddr = 0xd58a4
24882000: system.test_load_store_datapath: completeTLBRequest for paddr: 0x2270868 WriteReq
24882000: system.test_load_store_datapath: Translated: vaddr = 0x2270868, paddr = 0xd58a8
24884000: system.test_load_store_datapath: node:264, vaddr = 0x2270860, paddr = 0xd58a0 is accessing cache
24884000: system.test_load_store_datapath: node:272, vaddr = 0x2270864, paddr = 0xd58a4 is accessing cache
24884000: system.test_load_store_datapath: node:280, vaddr = 0x2270868, paddr = 0xd58a8 is accessing cache
24884000: system.test_load_store_datapath: issueTLBRequestTiming for trace addr: 0x2270878
24884000: system.test_load_store_datapath: node: 312, trace vaddr = 2270878, is translating
24884000: system.test_load_store_datapath: issueTLBRequestTiming for trace addr: 0x227087c
24884000: system.test_load_store_datapath: node: 320, trace vaddr = 227087c, is translating
24884000: system.test_load_store_datapath: issueTLBRequestTiming for trace addr: 0x2270880
24884000: system.test_load_store_datapath: node: 328, trace vaddr = 2270880, is translating
24884000: system.test_load_store_datapath: completeTLBRequest for paddr: 0x227086c WriteReq
24884000: system.test_load_store_datapath: Translated: vaddr = 0x227086c, paddr = 0xd58ac
24884000: system.test_load_store_datapath: completeTLBRequest for paddr: 0x2270870 WriteReq
24884000: system.test_load_store_datapath: Translated: vaddr = 0x2270870, paddr = 0xd58b0
24884000: system.test_load_store_datapath: completeTLBRequest for paddr: 0x2270874 WriteReq
24884000: system.test_load_store_datapath: Translated: vaddr = 0x2270874, paddr = 0xd58b4
24886000: system.test_load_store_datapath: node:288, vaddr = 0x227086c, paddr = 0xd58ac is accessing cache
24886000: system.test_load_store_datapath: node:296, vaddr = 0x2270870, paddr = 0xd58b0 is accessing cache
24886000: system.test_load_store_datapath: node:304, vaddr = 0x2270874, paddr = 0xd58b4 is accessing cache
24886000: system.test_load_store_datapath: issueTLBRequestTiming for trace addr: 0x2270884
24886000: system.test_load_store_datapath: node: 336, trace vaddr = 2270884, is translating
24886000: system.test_load_store_datapath: issueTLBRequestTiming for trace addr: 0x2270888
24886000: system.test_load_store_datapath: node: 344, trace vaddr = 2270888, is translating
24886000: system.test_load_store_datapath: issueTLBRequestTiming for trace addr: 0x227088c
24886000: system.test_load_store_datapath: node: 352, trace vaddr = 227088c, is translating
24886000: system.test_load_store_datapath: completeTLBRequest for paddr: 0x2270878 WriteReq
24886000: system.test_load_store_datapath: Translated: vaddr = 0x2270878, paddr = 0xd58b8
24886000: system.test_load_store_datapath: completeTLBRequest for paddr: 0x227087c WriteReq
24886000: system.test_load_store_datapath: Translated: vaddr = 0x227087c, paddr = 0xd58bc
24886000: system.test_load_store_datapath: completeTLBRequest for paddr: 0x2270880 WriteReq
24886000: system.test_load_store_datapath: Translated: vaddr = 0x2270880, paddr = 0xd58c0
24886000: system.test_load_store_datapath: updateCacheRequestStatusOnResp for node_id 264, WriteResp [d58a0:d58a3]
24886000: system.test_load_store_datapath: setting store cache queue entry for vaddr 0x2270860 to Returned.
24886001: system.test_load_store_datapath: updateCacheRequestStatusOnResp for node_id 272, WriteResp [d58a4:d58a7]
24886001: system.test_load_store_datapath: setting store cache queue entry for vaddr 0x2270864 to Returned.
24886002: system.test_load_store_datapath: updateCacheRequestStatusOnResp for node_id 280, WriteResp [d58a8:d58ab]
24886002: system.test_load_store_datapath: setting store cache queue entry for vaddr 0x2270868 to Returned.
24888000: system.test_load_store_datapath: updateCacheRequestStatusOnResp for node_id 288, WriteResp [d58ac:d58af]
24888000: system.test_load_store_datapath: setting store cache queue entry for vaddr 0x227086c to Returned.
24888000: system.test_load_store_datapath: node:312, vaddr = 0x2270878, paddr = 0xd58b8 is accessing cache
24888000: system.test_load_store_datapath: node:320, vaddr = 0x227087c, paddr = 0xd58bc is accessing cache
24888000: system.test_load_store_datapath: node:328, vaddr = 0x2270880, paddr = 0xd58c0 is accessing cache
24888000: system.test_load_store_datapath: issueTLBRequestTiming for trace addr: 0x2270890
24888000: system.test_load_store_datapath: node: 360, trace vaddr = 2270890, is translating
24888000: system.test_load_store_datapath: issueTLBRequestTiming for trace addr: 0x2270894
24888000: system.test_load_store_datapath: node: 368, trace vaddr = 2270894, is translating
24888000: system.test_load_store_datapath: issueTLBRequestTiming for trace addr: 0x2270898
24888000: system.test_load_store_datapath: node: 376, trace vaddr = 2270898, is translating
24888000: system.test_load_store_datapath: completeTLBRequest for paddr: 0x2270884 WriteReq
24888000: system.test_load_store_datapath: Translated: vaddr = 0x2270884, paddr = 0xd58c4
24888000: system.test_load_store_datapath: completeTLBRequest for paddr: 0x2270888 WriteReq
24888000: system.test_load_store_datapath: Translated: vaddr = 0x2270888, paddr = 0xd58c8
24888000: system.test_load_store_datapath: completeTLBRequest for paddr: 0x227088c WriteReq
24888000: system.test_load_store_datapath: Translated: vaddr = 0x227088c, paddr = 0xd58cc
24888001: system.test_load_store_datapath: updateCacheRequestStatusOnResp for node_id 296, WriteResp [d58b0:d58b3]
24888001: system.test_load_store_datapath: setting store cache queue entry for vaddr 0x2270870 to Returned.
24888002: system.test_load_store_datapath: updateCacheRequestStatusOnResp for node_id 304, WriteResp [d58b4:d58b7]
24888002: system.test_load_store_datapath: setting store cache queue entry for vaddr 0x2270874 to Returned.
24890000: system.test_load_store_datapath: updateCacheRequestStatusOnResp for node_id 312, WriteResp [d58b8:d58bb]
24890000: system.test_load_store_datapath: setting store cache queue entry for vaddr 0x2270878 to Returned.
24890000: system.test_load_store_datapath: node:336, vaddr = 0x2270884, paddr = 0xd58c4 is accessing cache
24890000: system.test_load_store_datapath: node:344, vaddr = 0x2270888, paddr = 0xd58c8 is accessing cache
24890000: system.test_load_store_datapath: node:352, vaddr = 0x227088c, paddr = 0xd58cc is accessing cache
24890000: system.test_load_store_datapath: issueTLBRequestTiming for trace addr: 0x227089c
24890000: system.test_load_store_datapath: node: 384, trace vaddr = 227089c, is translating
24890000: system.test_load_store_datapath: completeTLBRequest for paddr: 0x2270890 WriteReq
24890000: system.test_load_store_datapath: Translated: vaddr = 0x2270890, paddr = 0xd58d0
24890000: system.test_load_store_datapath: completeTLBRequest for paddr: 0x2270894 WriteReq
24890000: system.test_load_store_datapath: Translated: vaddr = 0x2270894, paddr = 0xd58d4
24890000: system.test_load_store_datapath: completeTLBRequest for paddr: 0x2270898 WriteReq
24890000: system.test_load_store_datapath: Translated: vaddr = 0x2270898, paddr = 0xd58d8
24890001: system.test_load_store_datapath: updateCacheRequestStatusOnResp for node_id 320, WriteResp [d58bc:d58bf]
24890001: system.test_load_store_datapath: setting store cache queue entry for vaddr 0x227087c to Returned.
24892000: system.test_load_store_datapath: node:360, vaddr = 0x2270890, paddr = 0xd58d0 is accessing cache
24892000: system.test_load_store_datapath: node:368, vaddr = 0x2270894, paddr = 0xd58d4 is accessing cache
24892000: system.test_load_store_datapath: node:376, vaddr = 0x2270898, paddr = 0xd58d8 is accessing cache
24892000: system.test_load_store_datapath: completeTLBRequest for paddr: 0x227089c WriteReq
24892000: system.test_load_store_datapath: Translated: vaddr = 0x227089c, paddr = 0xd58dc
24894000: system.test_load_store_datapath: node:384, vaddr = 0x227089c, paddr = 0xd58dc is accessing cache
24904000: system.test_load_store_datapath: updateCacheRequestStatusOnResp for node_id 328, WriteResp [d58c0:d58c3]
24904000: system.test_load_store_datapath: setting store cache queue entry for vaddr 0x2270880 to Returned.
24904001: system.test_load_store_datapath: updateCacheRequestStatusOnResp for node_id 336, WriteResp [d58c4:d58c7]
24904001: system.test_load_store_datapath: setting store cache queue entry for vaddr 0x2270884 to Returned.
24904002: system.test_load_store_datapath: updateCacheRequestStatusOnResp for node_id 344, WriteResp [d58c8:d58cb]
24904002: system.test_load_store_datapath: setting store cache queue entry for vaddr 0x2270888 to Returned.
24904003: system.test_load_store_datapath: updateCacheRequestStatusOnResp for node_id 352, WriteResp [d58cc:d58cf]
24904003: system.test_load_store_datapath: setting store cache queue entry for vaddr 0x227088c to Returned.
24904004: system.test_load_store_datapath: updateCacheRequestStatusOnResp for node_id 360, WriteResp [d58d0:d58d3]
24904004: system.test_load_store_datapath: setting store cache queue entry for vaddr 0x2270890 to Returned.
24904005: system.test_load_store_datapath: updateCacheRequestStatusOnResp for node_id 368, WriteResp [d58d4:d58d7]
24904005: system.test_load_store_datapath: setting store cache queue entry for vaddr 0x2270894 to Returned.
24904006: system.test_load_store_datapath: updateCacheRequestStatusOnResp for node_id 376, WriteResp [d58d8:d58db]
24904006: system.test_load_store_datapath: setting store cache queue entry for vaddr 0x2270898 to Returned.
24904007: system.test_load_store_datapath: updateCacheRequestStatusOnResp for node_id 384, WriteResp [d58dc:d58df]
24904007: system.test_load_store_datapath: setting store cache queue entry for vaddr 0x227089c to Returned.
24910000: system.test_load_store_datapath: issueTLBRequestTiming for trace addr: 0x226e890
24910000: system.test_load_store_datapath: node: 390, trace vaddr = 226e890, is translating
24910000: system.test_load_store_datapath: issueTLBRequestTiming for trace addr: 0x226e8c0
24910000: system.test_load_store_datapath: node: 486, trace vaddr = 226e8c0, is translating
24912000: system.test_load_store_datapath: completeTLBRequest for paddr: 0x226e890 ReadReq
24912000: system.test_load_store_datapath: Translated: vaddr = 0x226e890, paddr = 0xd28d0
24912000: system.test_load_store_datapath: completeTLBRequest for paddr: 0x226e8c0 ReadReq
24912000: system.test_load_store_datapath: Translated: vaddr = 0x226e8c0, paddr = 0xd2900
24914000: system.test_load_store_datapath: node:390, vaddr = 0x226e890, paddr = 0xd28d0 is accessing cache
24914000: system.test_load_store_datapath: node:486, vaddr = 0x226e8c0, paddr = 0xd2900 is accessing cache
24916000: system.test_load_store_datapath: updateCacheRequestStatusOnResp for node_id 390, ReadResp [d28d0:d28d3]
24916000: system.test_load_store_datapath: setting load cache queue entry for vaddr 0x226e890 to Returned.
24916001: system.test_load_store_datapath: updateCacheRequestStatusOnResp for node_id 486, ReadResp [d2900:d2903]
24916001: system.test_load_store_datapath: setting load cache queue entry for vaddr 0x226e8c0 to Returned.
24920000: system.test_load_store_datapath: issueTLBRequestTiming for trace addr: 0x22708a0
24920000: system.test_load_store_datapath: node: 392, trace vaddr = 22708a0, is translating
24920000: system.test_load_store_datapath: issueTLBRequestTiming for trace addr: 0x22708a4
24920000: system.test_load_store_datapath: node: 400, trace vaddr = 22708a4, is translating
24920000: system.test_load_store_datapath: issueTLBRequestTiming for trace addr: 0x22708a8
24920000: system.test_load_store_datapath: node: 408, trace vaddr = 22708a8, is translating
24922000: system.test_load_store_datapath: issueTLBRequestTiming for trace addr: 0x22708ac
24922000: system.test_load_store_datapath: node: 416, trace vaddr = 22708ac, is translating
24922000: system.test_load_store_datapath: issueTLBRequestTiming for trace addr: 0x22708b0
24922000: system.test_load_store_datapath: node: 424, trace vaddr = 22708b0, is translating
24922000: system.test_load_store_datapath: issueTLBRequestTiming for trace addr: 0x22708b4
24922000: system.test_load_store_datapath: node: 432, trace vaddr = 22708b4, is translating
24922000: system.test_load_store_datapath: completeTLBRequest for paddr: 0x22708a0 WriteReq
24922000: system.test_load_store_datapath: Translated: vaddr = 0x22708a0, paddr = 0xd58e0
24922000: system.test_load_store_datapath: completeTLBRequest for paddr: 0x22708a4 WriteReq
24922000: system.test_load_store_datapath: Translated: vaddr = 0x22708a4, paddr = 0xd58e4
24922000: system.test_load_store_datapath: completeTLBRequest for paddr: 0x22708a8 WriteReq
24922000: system.test_load_store_datapath: Translated: vaddr = 0x22708a8, paddr = 0xd58e8
24924000: system.test_load_store_datapath: node:392, vaddr = 0x22708a0, paddr = 0xd58e0 is accessing cache
24924000: system.test_load_store_datapath: node:400, vaddr = 0x22708a4, paddr = 0xd58e4 is accessing cache
24924000: system.test_load_store_datapath: node:408, vaddr = 0x22708a8, paddr = 0xd58e8 is accessing cache
24924000: system.test_load_store_datapath: issueTLBRequestTiming for trace addr: 0x22708b8
24924000: system.test_load_store_datapath: node: 440, trace vaddr = 22708b8, is translating
24924000: system.test_load_store_datapath: issueTLBRequestTiming for trace addr: 0x22708bc
24924000: system.test_load_store_datapath: node: 448, trace vaddr = 22708bc, is translating
24924000: system.test_load_store_datapath: issueTLBRequestTiming for trace addr: 0x22708c0
24924000: system.test_load_store_datapath: node: 456, trace vaddr = 22708c0, is translating
24924000: system.test_load_store_datapath: completeTLBRequest for paddr: 0x22708ac WriteReq
24924000: system.test_load_store_datapath: Translated: vaddr = 0x22708ac, paddr = 0xd58ec
24924000: system.test_load_store_datapath: completeTLBRequest for paddr: 0x22708b0 WriteReq
24924000: system.test_load_store_datapath: Translated: vaddr = 0x22708b0, paddr = 0xd58f0
24924000: system.test_load_store_datapath: completeTLBRequest for paddr: 0x22708b4 WriteReq
24924000: system.test_load_store_datapath: Translated: vaddr = 0x22708b4, paddr = 0xd58f4
24926000: system.test_load_store_datapath: node:416, vaddr = 0x22708ac, paddr = 0xd58ec is accessing cache
24926000: system.test_load_store_datapath: node:424, vaddr = 0x22708b0, paddr = 0xd58f0 is accessing cache
24926000: system.test_load_store_datapath: node:432, vaddr = 0x22708b4, paddr = 0xd58f4 is accessing cache
24926000: system.test_load_store_datapath: issueTLBRequestTiming for trace addr: 0x22708c4
24926000: system.test_load_store_datapath: node: 464, trace vaddr = 22708c4, is translating
24926000: system.test_load_store_datapath: issueTLBRequestTiming for trace addr: 0x22708c8
24926000: system.test_load_store_datapath: node: 472, trace vaddr = 22708c8, is translating
24926000: system.test_load_store_datapath: issueTLBRequestTiming for trace addr: 0x22708cc
24926000: system.test_load_store_datapath: node: 480, trace vaddr = 22708cc, is translating
24926000: system.test_load_store_datapath: completeTLBRequest for paddr: 0x22708b8 WriteReq
24926000: system.test_load_store_datapath: Translated: vaddr = 0x22708b8, paddr = 0xd58f8
24926000: system.test_load_store_datapath: completeTLBRequest for paddr: 0x22708bc WriteReq
24926000: system.test_load_store_datapath: Translated: vaddr = 0x22708bc, paddr = 0xd58fc
24926000: system.test_load_store_datapath: completeTLBRequest for paddr: 0x22708c0 WriteReq
24926000: system.test_load_store_datapath: Translated: vaddr = 0x22708c0, paddr = 0xd5900
24926000: system.test_load_store_datapath: updateCacheRequestStatusOnResp for node_id 392, WriteResp [d58e0:d58e3]
24926000: system.test_load_store_datapath: setting store cache queue entry for vaddr 0x22708a0 to Returned.
24926001: system.test_load_store_datapath: updateCacheRequestStatusOnResp for node_id 400, WriteResp [d58e4:d58e7]
24926001: system.test_load_store_datapath: setting store cache queue entry for vaddr 0x22708a4 to Returned.
24926002: system.test_load_store_datapath: updateCacheRequestStatusOnResp for node_id 408, WriteResp [d58e8:d58eb]
24926002: system.test_load_store_datapath: setting store cache queue entry for vaddr 0x22708a8 to Returned.
24928000: system.test_load_store_datapath: updateCacheRequestStatusOnResp for node_id 416, WriteResp [d58ec:d58ef]
24928000: system.test_load_store_datapath: setting store cache queue entry for vaddr 0x22708ac to Returned.
24928000: system.test_load_store_datapath: node:440, vaddr = 0x22708b8, paddr = 0xd58f8 is accessing cache
24928000: system.test_load_store_datapath: node:448, vaddr = 0x22708bc, paddr = 0xd58fc is accessing cache
24928000: system.test_load_store_datapath: node:456, vaddr = 0x22708c0, paddr = 0xd5900 is accessing cache
24928000: system.test_load_store_datapath: issueTLBRequestTiming for trace addr: 0x22708d0
24928000: system.test_load_store_datapath: node: 488, trace vaddr = 22708d0, is translating
24928000: system.test_load_store_datapath: issueTLBRequestTiming for trace addr: 0x22708d4
24928000: system.test_load_store_datapath: node: 496, trace vaddr = 22708d4, is translating
24928000: system.test_load_store_datapath: issueTLBRequestTiming for trace addr: 0x22708d8
24928000: system.test_load_store_datapath: node: 504, trace vaddr = 22708d8, is translating
24928000: system.test_load_store_datapath: completeTLBRequest for paddr: 0x22708c4 WriteReq
24928000: system.test_load_store_datapath: Translated: vaddr = 0x22708c4, paddr = 0xd5904
24928000: system.test_load_store_datapath: completeTLBRequest for paddr: 0x22708c8 WriteReq
24928000: system.test_load_store_datapath: Translated: vaddr = 0x22708c8, paddr = 0xd5908
24928000: system.test_load_store_datapath: completeTLBRequest for paddr: 0x22708cc WriteReq
24928000: system.test_load_store_datapath: Translated: vaddr = 0x22708cc, paddr = 0xd590c
24928001: system.test_load_store_datapath: updateCacheRequestStatusOnResp for node_id 424, WriteResp [d58f0:d58f3]
24928001: system.test_load_store_datapath: setting store cache queue entry for vaddr 0x22708b0 to Returned.
24928002: system.test_load_store_datapath: updateCacheRequestStatusOnResp for node_id 432, WriteResp [d58f4:d58f7]
24928002: system.test_load_store_datapath: setting store cache queue entry for vaddr 0x22708b4 to Returned.
24930000: system.test_load_store_datapath: updateCacheRequestStatusOnResp for node_id 440, WriteResp [d58f8:d58fb]
24930000: system.test_load_store_datapath: setting store cache queue entry for vaddr 0x22708b8 to Returned.
24930000: system.test_load_store_datapath: node:464, vaddr = 0x22708c4, paddr = 0xd5904 is accessing cache
24930000: system.test_load_store_datapath: node:472, vaddr = 0x22708c8, paddr = 0xd5908 is accessing cache
24930000: system.test_load_store_datapath: node:480, vaddr = 0x22708cc, paddr = 0xd590c is accessing cache
24930000: system.test_load_store_datapath: issueTLBRequestTiming for trace addr: 0x22708dc
24930000: system.test_load_store_datapath: node: 512, trace vaddr = 22708dc, is translating
24930000: system.test_load_store_datapath: completeTLBRequest for paddr: 0x22708d0 WriteReq
24930000: system.test_load_store_datapath: Translated: vaddr = 0x22708d0, paddr = 0xd5910
24930000: system.test_load_store_datapath: completeTLBRequest for paddr: 0x22708d4 WriteReq
24930000: system.test_load_store_datapath: Translated: vaddr = 0x22708d4, paddr = 0xd5914
24930000: system.test_load_store_datapath: completeTLBRequest for paddr: 0x22708d8 WriteReq
24930000: system.test_load_store_datapath: Translated: vaddr = 0x22708d8, paddr = 0xd5918
24930001: system.test_load_store_datapath: updateCacheRequestStatusOnResp for node_id 448, WriteResp [d58fc:d58ff]
24930001: system.test_load_store_datapath: setting store cache queue entry for vaddr 0x22708bc to Returned.
24932000: system.test_load_store_datapath: node:488, vaddr = 0x22708d0, paddr = 0xd5910 is accessing cache
24932000: system.test_load_store_datapath: node:496, vaddr = 0x22708d4, paddr = 0xd5914 is accessing cache
24932000: system.test_load_store_datapath: node:504, vaddr = 0x22708d8, paddr = 0xd5918 is accessing cache
24932000: system.test_load_store_datapath: completeTLBRequest for paddr: 0x22708dc WriteReq
24932000: system.test_load_store_datapath: Translated: vaddr = 0x22708dc, paddr = 0xd591c
24934000: system.test_load_store_datapath: node:512, vaddr = 0x22708dc, paddr = 0xd591c is accessing cache
24944000: system.test_load_store_datapath: updateCacheRequestStatusOnResp for node_id 456, WriteResp [d5900:d5903]
24944000: system.test_load_store_datapath: setting store cache queue entry for vaddr 0x22708c0 to Returned.
24944001: system.test_load_store_datapath: updateCacheRequestStatusOnResp for node_id 464, WriteResp [d5904:d5907]
24944001: system.test_load_store_datapath: setting store cache queue entry for vaddr 0x22708c4 to Returned.
24944002: system.test_load_store_datapath: updateCacheRequestStatusOnResp for node_id 472, WriteResp [d5908:d590b]
24944002: system.test_load_store_datapath: setting store cache queue entry for vaddr 0x22708c8 to Returned.
24944003: system.test_load_store_datapath: updateCacheRequestStatusOnResp for node_id 480, WriteResp [d590c:d590f]
24944003: system.test_load_store_datapath: setting store cache queue entry for vaddr 0x22708cc to Returned.
24944004: system.test_load_store_datapath: updateCacheRequestStatusOnResp for node_id 488, WriteResp [d5910:d5913]
24944004: system.test_load_store_datapath: setting store cache queue entry for vaddr 0x22708d0 to Returned.
24944005: system.test_load_store_datapath: updateCacheRequestStatusOnResp for node_id 496, WriteResp [d5914:d5917]
24944005: system.test_load_store_datapath: setting store cache queue entry for vaddr 0x22708d4 to Returned.
24944006: system.test_load_store_datapath: updateCacheRequestStatusOnResp for node_id 504, WriteResp [d5918:d591b]
24944006: system.test_load_store_datapath: setting store cache queue entry for vaddr 0x22708d8 to Returned.
24944007: system.test_load_store_datapath: updateCacheRequestStatusOnResp for node_id 512, WriteResp [d591c:d591f]
24944007: system.test_load_store_datapath: setting store cache queue entry for vaddr 0x22708dc to Returned.
24950000: system.test_load_store_datapath: issueTLBRequestTiming for trace addr: 0x226e8d0
24950000: system.test_load_store_datapath: node: 518, trace vaddr = 226e8d0, is translating
24950000: system.test_load_store_datapath: issueTLBRequestTiming for trace addr: 0x226e900
24950000: system.test_load_store_datapath: node: 614, trace vaddr = 226e900, is translating
24952000: system.test_load_store_datapath: completeTLBRequest for paddr: 0x226e8d0 ReadReq
24952000: system.test_load_store_datapath: Translated: vaddr = 0x226e8d0, paddr = 0xd2910
24952000: system.test_load_store_datapath: completeTLBRequest for paddr: 0x226e900 ReadReq
24952000: system.test_load_store_datapath: Translated: vaddr = 0x226e900, paddr = 0xd2940
24954000: system.test_load_store_datapath: node:518, vaddr = 0x226e8d0, paddr = 0xd2910 is accessing cache
24954000: system.test_load_store_datapath: node:614, vaddr = 0x226e900, paddr = 0xd2940 is accessing cache
24956000: system.test_load_store_datapath: updateCacheRequestStatusOnResp for node_id 518, ReadResp [d2910:d2913]
24956000: system.test_load_store_datapath: setting load cache queue entry for vaddr 0x226e8d0 to Returned.
24956001: system.test_load_store_datapath: updateCacheRequestStatusOnResp for node_id 614, ReadResp [d2940:d2943]
24956001: system.test_load_store_datapath: setting load cache queue entry for vaddr 0x226e900 to Returned.
24960000: system.test_load_store_datapath: issueTLBRequestTiming for trace addr: 0x22708e0
24960000: system.test_load_store_datapath: node: 520, trace vaddr = 22708e0, is translating
24960000: system.test_load_store_datapath: issueTLBRequestTiming for trace addr: 0x22708e4
24960000: system.test_load_store_datapath: node: 528, trace vaddr = 22708e4, is translating
24960000: system.test_load_store_datapath: issueTLBRequestTiming for trace addr: 0x22708e8
24960000: system.test_load_store_datapath: node: 536, trace vaddr = 22708e8, is translating
24962000: system.test_load_store_datapath: issueTLBRequestTiming for trace addr: 0x22708ec
24962000: system.test_load_store_datapath: node: 544, trace vaddr = 22708ec, is translating
24962000: system.test_load_store_datapath: issueTLBRequestTiming for trace addr: 0x22708f0
24962000: system.test_load_store_datapath: node: 552, trace vaddr = 22708f0, is translating
24962000: system.test_load_store_datapath: issueTLBRequestTiming for trace addr: 0x22708f4
24962000: system.test_load_store_datapath: node: 560, trace vaddr = 22708f4, is translating
24962000: system.test_load_store_datapath: completeTLBRequest for paddr: 0x22708e0 WriteReq
24962000: system.test_load_store_datapath: Translated: vaddr = 0x22708e0, paddr = 0xd5920
24962000: system.test_load_store_datapath: completeTLBRequest for paddr: 0x22708e4 WriteReq
24962000: system.test_load_store_datapath: Translated: vaddr = 0x22708e4, paddr = 0xd5924
24962000: system.test_load_store_datapath: completeTLBRequest for paddr: 0x22708e8 WriteReq
24962000: system.test_load_store_datapath: Translated: vaddr = 0x22708e8, paddr = 0xd5928
24964000: system.test_load_store_datapath: node:520, vaddr = 0x22708e0, paddr = 0xd5920 is accessing cache
24964000: system.test_load_store_datapath: node:528, vaddr = 0x22708e4, paddr = 0xd5924 is accessing cache
24964000: system.test_load_store_datapath: node:536, vaddr = 0x22708e8, paddr = 0xd5928 is accessing cache
24964000: system.test_load_store_datapath: issueTLBRequestTiming for trace addr: 0x22708f8
24964000: system.test_load_store_datapath: node: 568, trace vaddr = 22708f8, is translating
24964000: system.test_load_store_datapath: issueTLBRequestTiming for trace addr: 0x22708fc
24964000: system.test_load_store_datapath: node: 576, trace vaddr = 22708fc, is translating
24964000: system.test_load_store_datapath: issueTLBRequestTiming for trace addr: 0x2270900
24964000: system.test_load_store_datapath: node: 584, trace vaddr = 2270900, is translating
24964000: system.test_load_store_datapath: completeTLBRequest for paddr: 0x22708ec WriteReq
24964000: system.test_load_store_datapath: Translated: vaddr = 0x22708ec, paddr = 0xd592c
24964000: system.test_load_store_datapath: completeTLBRequest for paddr: 0x22708f0 WriteReq
24964000: system.test_load_store_datapath: Translated: vaddr = 0x22708f0, paddr = 0xd5930
24964000: system.test_load_store_datapath: completeTLBRequest for paddr: 0x22708f4 WriteReq
24964000: system.test_load_store_datapath: Translated: vaddr = 0x22708f4, paddr = 0xd5934
24966000: system.test_load_store_datapath: node:544, vaddr = 0x22708ec, paddr = 0xd592c is accessing cache
24966000: system.test_load_store_datapath: node:552, vaddr = 0x22708f0, paddr = 0xd5930 is accessing cache
24966000: system.test_load_store_datapath: node:560, vaddr = 0x22708f4, paddr = 0xd5934 is accessing cache
24966000: system.test_load_store_datapath: issueTLBRequestTiming for trace addr: 0x2270904
24966000: system.test_load_store_datapath: node: 592, trace vaddr = 2270904, is translating
24966000: system.test_load_store_datapath: issueTLBRequestTiming for trace addr: 0x2270908
24966000: system.test_load_store_datapath: node: 600, trace vaddr = 2270908, is translating
24966000: system.test_load_store_datapath: issueTLBRequestTiming for trace addr: 0x227090c
24966000: system.test_load_store_datapath: node: 608, trace vaddr = 227090c, is translating
24966000: system.test_load_store_datapath: completeTLBRequest for paddr: 0x22708f8 WriteReq
24966000: system.test_load_store_datapath: Translated: vaddr = 0x22708f8, paddr = 0xd5938
24966000: system.test_load_store_datapath: completeTLBRequest for paddr: 0x22708fc WriteReq
24966000: system.test_load_store_datapath: Translated: vaddr = 0x22708fc, paddr = 0xd593c
24966000: system.test_load_store_datapath: completeTLBRequest for paddr: 0x2270900 WriteReq
24966000: system.test_load_store_datapath: Translated: vaddr = 0x2270900, paddr = 0xd5940
24966000: system.test_load_store_datapath: updateCacheRequestStatusOnResp for node_id 520, WriteResp [d5920:d5923]
24966000: system.test_load_store_datapath: setting store cache queue entry for vaddr 0x22708e0 to Returned.
24966001: system.test_load_store_datapath: updateCacheRequestStatusOnResp for node_id 528, WriteResp [d5924:d5927]
24966001: system.test_load_store_datapath: setting store cache queue entry for vaddr 0x22708e4 to Returned.
24966002: system.test_load_store_datapath: updateCacheRequestStatusOnResp for node_id 536, WriteResp [d5928:d592b]
24966002: system.test_load_store_datapath: setting store cache queue entry for vaddr 0x22708e8 to Returned.
24968000: system.test_load_store_datapath: updateCacheRequestStatusOnResp for node_id 544, WriteResp [d592c:d592f]
24968000: system.test_load_store_datapath: setting store cache queue entry for vaddr 0x22708ec to Returned.
24968000: system.test_load_store_datapath: node:568, vaddr = 0x22708f8, paddr = 0xd5938 is accessing cache
24968000: system.test_load_store_datapath: node:576, vaddr = 0x22708fc, paddr = 0xd593c is accessing cache
24968000: system.test_load_store_datapath: node:584, vaddr = 0x2270900, paddr = 0xd5940 is accessing cache
24968000: system.test_load_store_datapath: issueTLBRequestTiming for trace addr: 0x2270910
24968000: system.test_load_store_datapath: node: 616, trace vaddr = 2270910, is translating
24968000: system.test_load_store_datapath: issueTLBRequestTiming for trace addr: 0x2270914
24968000: system.test_load_store_datapath: node: 624, trace vaddr = 2270914, is translating
24968000: system.test_load_store_datapath: issueTLBRequestTiming for trace addr: 0x2270918
24968000: system.test_load_store_datapath: node: 632, trace vaddr = 2270918, is translating
24968000: system.test_load_store_datapath: completeTLBRequest for paddr: 0x2270904 WriteReq
24968000: system.test_load_store_datapath: Translated: vaddr = 0x2270904, paddr = 0xd5944
24968000: system.test_load_store_datapath: completeTLBRequest for paddr: 0x2270908 WriteReq
24968000: system.test_load_store_datapath: Translated: vaddr = 0x2270908, paddr = 0xd5948
24968000: system.test_load_store_datapath: completeTLBRequest for paddr: 0x227090c WriteReq
24968000: system.test_load_store_datapath: Translated: vaddr = 0x227090c, paddr = 0xd594c
24968001: system.test_load_store_datapath: updateCacheRequestStatusOnResp for node_id 552, WriteResp [d5930:d5933]
24968001: system.test_load_store_datapath: setting store cache queue entry for vaddr 0x22708f0 to Returned.
24968002: system.test_load_store_datapath: updateCacheRequestStatusOnResp for node_id 560, WriteResp [d5934:d5937]
24968002: system.test_load_store_datapath: setting store cache queue entry for vaddr 0x22708f4 to Returned.
24970000: system.test_load_store_datapath: updateCacheRequestStatusOnResp for node_id 568, WriteResp [d5938:d593b]
24970000: system.test_load_store_datapath: setting store cache queue entry for vaddr 0x22708f8 to Returned.
24970000: system.test_load_store_datapath: node:592, vaddr = 0x2270904, paddr = 0xd5944 is accessing cache
24970000: system.test_load_store_datapath: node:600, vaddr = 0x2270908, paddr = 0xd5948 is accessing cache
24970000: system.test_load_store_datapath: node:608, vaddr = 0x227090c, paddr = 0xd594c is accessing cache
24970000: system.test_load_store_datapath: issueTLBRequestTiming for trace addr: 0x227091c
24970000: system.test_load_store_datapath: node: 640, trace vaddr = 227091c, is translating
24970000: system.test_load_store_datapath: completeTLBRequest for paddr: 0x2270910 WriteReq
24970000: system.test_load_store_datapath: Translated: vaddr = 0x2270910, paddr = 0xd5950
24970000: system.test_load_store_datapath: completeTLBRequest for paddr: 0x2270914 WriteReq
24970000: system.test_load_store_datapath: Translated: vaddr = 0x2270914, paddr = 0xd5954
24970000: system.test_load_store_datapath: completeTLBRequest for paddr: 0x2270918 WriteReq
24970000: system.test_load_store_datapath: Translated: vaddr = 0x2270918, paddr = 0xd5958
24970001: system.test_load_store_datapath: updateCacheRequestStatusOnResp for node_id 576, WriteResp [d593c:d593f]
24970001: system.test_load_store_datapath: setting store cache queue entry for vaddr 0x22708fc to Returned.
24972000: system.test_load_store_datapath: node:616, vaddr = 0x2270910, paddr = 0xd5950 is accessing cache
24972000: system.test_load_store_datapath: node:624, vaddr = 0x2270914, paddr = 0xd5954 is accessing cache
24972000: system.test_load_store_datapath: node:632, vaddr = 0x2270918, paddr = 0xd5958 is accessing cache
24972000: system.test_load_store_datapath: completeTLBRequest for paddr: 0x227091c WriteReq
24972000: system.test_load_store_datapath: Translated: vaddr = 0x227091c, paddr = 0xd595c
24974000: system.test_load_store_datapath: node:640, vaddr = 0x227091c, paddr = 0xd595c is accessing cache
24984000: system.test_load_store_datapath: updateCacheRequestStatusOnResp for node_id 584, WriteResp [d5940:d5943]
24984000: system.test_load_store_datapath: setting store cache queue entry for vaddr 0x2270900 to Returned.
24984001: system.test_load_store_datapath: updateCacheRequestStatusOnResp for node_id 592, WriteResp [d5944:d5947]
24984001: system.test_load_store_datapath: setting store cache queue entry for vaddr 0x2270904 to Returned.
24984002: system.test_load_store_datapath: updateCacheRequestStatusOnResp for node_id 600, WriteResp [d5948:d594b]
24984002: system.test_load_store_datapath: setting store cache queue entry for vaddr 0x2270908 to Returned.
24984003: system.test_load_store_datapath: updateCacheRequestStatusOnResp for node_id 608, WriteResp [d594c:d594f]
24984003: system.test_load_store_datapath: setting store cache queue entry for vaddr 0x227090c to Returned.
24984004: system.test_load_store_datapath: updateCacheRequestStatusOnResp for node_id 616, WriteResp [d5950:d5953]
24984004: system.test_load_store_datapath: setting store cache queue entry for vaddr 0x2270910 to Returned.
24984005: system.test_load_store_datapath: updateCacheRequestStatusOnResp for node_id 624, WriteResp [d5954:d5957]
24984005: system.test_load_store_datapath: setting store cache queue entry for vaddr 0x2270914 to Returned.
24984006: system.test_load_store_datapath: updateCacheRequestStatusOnResp for node_id 632, WriteResp [d5958:d595b]
24984006: system.test_load_store_datapath: setting store cache queue entry for vaddr 0x2270918 to Returned.
24984007: system.test_load_store_datapath: updateCacheRequestStatusOnResp for node_id 640, WriteResp [d595c:d595f]
24984007: system.test_load_store_datapath: setting store cache queue entry for vaddr 0x227091c to Returned.
24990000: system.test_load_store_datapath: issueTLBRequestTiming for trace addr: 0x226e910
24990000: system.test_load_store_datapath: node: 646, trace vaddr = 226e910, is translating
24990000: system.test_load_store_datapath: issueTLBRequestTiming for trace addr: 0x226e940
24990000: system.test_load_store_datapath: node: 742, trace vaddr = 226e940, is translating
24992000: system.test_load_store_datapath: completeTLBRequest for paddr: 0x226e910 ReadReq
24992000: system.test_load_store_datapath: Translated: vaddr = 0x226e910, paddr = 0xd2950
24992000: system.test_load_store_datapath: completeTLBRequest for paddr: 0x226e940 ReadReq
24992000: system.test_load_store_datapath: Translated: vaddr = 0x226e940, paddr = 0xd2980
24994000: system.test_load_store_datapath: node:646, vaddr = 0x226e910, paddr = 0xd2950 is accessing cache
24994000: system.test_load_store_datapath: node:742, vaddr = 0x226e940, paddr = 0xd2980 is accessing cache
24996000: system.test_load_store_datapath: updateCacheRequestStatusOnResp for node_id 646, ReadResp [d2950:d2953]
24996000: system.test_load_store_datapath: setting load cache queue entry for vaddr 0x226e910 to Returned.
24996001: system.test_load_store_datapath: updateCacheRequestStatusOnResp for node_id 742, ReadResp [d2980:d2983]
24996001: system.test_load_store_datapath: setting load cache queue entry for vaddr 0x226e940 to Returned.
25000000: system.test_load_store_datapath: issueTLBRequestTiming for trace addr: 0x2270920
25000000: system.test_load_store_datapath: node: 648, trace vaddr = 2270920, is translating
25000000: system.test_load_store_datapath: issueTLBRequestTiming for trace addr: 0x2270924
25000000: system.test_load_store_datapath: node: 656, trace vaddr = 2270924, is translating
25000000: system.test_load_store_datapath: issueTLBRequestTiming for trace addr: 0x2270928
25000000: system.test_load_store_datapath: node: 664, trace vaddr = 2270928, is translating
25002000: system.test_load_store_datapath: issueTLBRequestTiming for trace addr: 0x227092c
25002000: system.test_load_store_datapath: node: 672, trace vaddr = 227092c, is translating
25002000: system.test_load_store_datapath: issueTLBRequestTiming for trace addr: 0x2270930
25002000: system.test_load_store_datapath: node: 680, trace vaddr = 2270930, is translating
25002000: system.test_load_store_datapath: issueTLBRequestTiming for trace addr: 0x2270934
25002000: system.test_load_store_datapath: node: 688, trace vaddr = 2270934, is translating
25002000: system.test_load_store_datapath: completeTLBRequest for paddr: 0x2270920 WriteReq
25002000: system.test_load_store_datapath: Translated: vaddr = 0x2270920, paddr = 0xd5960
25002000: system.test_load_store_datapath: completeTLBRequest for paddr: 0x2270924 WriteReq
25002000: system.test_load_store_datapath: Translated: vaddr = 0x2270924, paddr = 0xd5964
25002000: system.test_load_store_datapath: completeTLBRequest for paddr: 0x2270928 WriteReq
25002000: system.test_load_store_datapath: Translated: vaddr = 0x2270928, paddr = 0xd5968
25004000: system.test_load_store_datapath: node:648, vaddr = 0x2270920, paddr = 0xd5960 is accessing cache
25004000: system.test_load_store_datapath: node:656, vaddr = 0x2270924, paddr = 0xd5964 is accessing cache
25004000: system.test_load_store_datapath: node:664, vaddr = 0x2270928, paddr = 0xd5968 is accessing cache
25004000: system.test_load_store_datapath: issueTLBRequestTiming for trace addr: 0x2270938
25004000: system.test_load_store_datapath: node: 696, trace vaddr = 2270938, is translating
25004000: system.test_load_store_datapath: issueTLBRequestTiming for trace addr: 0x227093c
25004000: system.test_load_store_datapath: node: 704, trace vaddr = 227093c, is translating
25004000: system.test_load_store_datapath: issueTLBRequestTiming for trace addr: 0x2270940
25004000: system.test_load_store_datapath: node: 712, trace vaddr = 2270940, is translating
25004000: system.test_load_store_datapath: completeTLBRequest for paddr: 0x227092c WriteReq
25004000: system.test_load_store_datapath: Translated: vaddr = 0x227092c, paddr = 0xd596c
25004000: system.test_load_store_datapath: completeTLBRequest for paddr: 0x2270930 WriteReq
25004000: system.test_load_store_datapath: Translated: vaddr = 0x2270930, paddr = 0xd5970
25004000: system.test_load_store_datapath: completeTLBRequest for paddr: 0x2270934 WriteReq
25004000: system.test_load_store_datapath: Translated: vaddr = 0x2270934, paddr = 0xd5974
25006000: system.test_load_store_datapath: node:672, vaddr = 0x227092c, paddr = 0xd596c is accessing cache
25006000: system.test_load_store_datapath: node:680, vaddr = 0x2270930, paddr = 0xd5970 is accessing cache
25006000: system.test_load_store_datapath: node:688, vaddr = 0x2270934, paddr = 0xd5974 is accessing cache
25006000: system.test_load_store_datapath: issueTLBRequestTiming for trace addr: 0x2270944
25006000: system.test_load_store_datapath: node: 720, trace vaddr = 2270944, is translating
25006000: system.test_load_store_datapath: issueTLBRequestTiming for trace addr: 0x2270948
25006000: system.test_load_store_datapath: node: 728, trace vaddr = 2270948, is translating
25006000: system.test_load_store_datapath: issueTLBRequestTiming for trace addr: 0x227094c
25006000: system.test_load_store_datapath: node: 736, trace vaddr = 227094c, is translating
25006000: system.test_load_store_datapath: completeTLBRequest for paddr: 0x2270938 WriteReq
25006000: system.test_load_store_datapath: Translated: vaddr = 0x2270938, paddr = 0xd5978
25006000: system.test_load_store_datapath: completeTLBRequest for paddr: 0x227093c WriteReq
25006000: system.test_load_store_datapath: Translated: vaddr = 0x227093c, paddr = 0xd597c
25006000: system.test_load_store_datapath: completeTLBRequest for paddr: 0x2270940 WriteReq
25006000: system.test_load_store_datapath: Translated: vaddr = 0x2270940, paddr = 0xd5980
25006000: system.test_load_store_datapath: updateCacheRequestStatusOnResp for node_id 648, WriteResp [d5960:d5963]
25006000: system.test_load_store_datapath: setting store cache queue entry for vaddr 0x2270920 to Returned.
25006001: system.test_load_store_datapath: updateCacheRequestStatusOnResp for node_id 656, WriteResp [d5964:d5967]
25006001: system.test_load_store_datapath: setting store cache queue entry for vaddr 0x2270924 to Returned.
25006002: system.test_load_store_datapath: updateCacheRequestStatusOnResp for node_id 664, WriteResp [d5968:d596b]
25006002: system.test_load_store_datapath: setting store cache queue entry for vaddr 0x2270928 to Returned.
25008000: system.test_load_store_datapath: updateCacheRequestStatusOnResp for node_id 672, WriteResp [d596c:d596f]
25008000: system.test_load_store_datapath: setting store cache queue entry for vaddr 0x227092c to Returned.
25008000: system.test_load_store_datapath: node:696, vaddr = 0x2270938, paddr = 0xd5978 is accessing cache
[...]
30318000: system.test_load_store_datapath: issueTLBRequestTiming for trace addr: 0x227279c
30318000: system.test_load_store_datapath: node: 16256, trace vaddr = 227279c, is translating
30318000: system.test_load_store_datapath: completeTLBRequest for paddr: 0x2272790 WriteReq
30318000: system.test_load_store_datapath: Translated: vaddr = 0x2272790, paddr = 0xd77d0
30318000: system.test_load_store_datapath: completeTLBRequest for paddr: 0x2272794 WriteReq
30318000: system.test_load_store_datapath: Translated: vaddr = 0x2272794, paddr = 0xd77d4
30318000: system.test_load_store_datapath: completeTLBRequest for paddr: 0x2272798 WriteReq
30318000: system.test_load_store_datapath: Translated: vaddr = 0x2272798, paddr = 0xd77d8
30318001: system.test_load_store_datapath: updateCacheRequestStatusOnResp for node_id 16192, WriteResp [d77bc:d77bf]
30318001: system.test_load_store_datapath: setting store cache queue entry for vaddr 0x227277c to Returned.
30320000: system.test_load_store_datapath: node:16232, vaddr = 0x2272790, paddr = 0xd77d0 is accessing cache
30320000: system.test_load_store_datapath: node:16240, vaddr = 0x2272794, paddr = 0xd77d4 is accessing cache
30320000: system.test_load_store_datapath: node:16248, vaddr = 0x2272798, paddr = 0xd77d8 is accessing cache
30320000: system.test_load_store_datapath: completeTLBRequest for paddr: 0x227279c WriteReq
30320000: system.test_load_store_datapath: Translated: vaddr = 0x227279c, paddr = 0xd77dc
30322000: system.test_load_store_datapath: node:16256, vaddr = 0x227279c, paddr = 0xd77dc is accessing cache
30338000: system.test_load_store_datapath: updateCacheRequestStatusOnResp for node_id 16200, WriteResp [d77c0:d77c3]
30338000: system.test_load_store_datapath: setting store cache queue entry for vaddr 0x2272780 to Returned.
30338001: system.test_load_store_datapath: updateCacheRequestStatusOnResp for node_id 16208, WriteResp [d77c4:d77c7]
30338001: system.test_load_store_datapath: setting store cache queue entry for vaddr 0x2272784 to Returned.
30338002: system.test_load_store_datapath: updateCacheRequestStatusOnResp for node_id 16216, WriteResp [d77c8:d77cb]
30338002: system.test_load_store_datapath: setting store cache queue entry for vaddr 0x2272788 to Returned.
30338003: system.test_load_store_datapath: updateCacheRequestStatusOnResp for node_id 16224, WriteResp [d77cc:d77cf]
30338003: system.test_load_store_datapath: setting store cache queue entry for vaddr 0x227278c to Returned.
30338004: system.test_load_store_datapath: updateCacheRequestStatusOnResp for node_id 16232, WriteResp [d77d0:d77d3]
30338004: system.test_load_store_datapath: setting store cache queue entry for vaddr 0x2272790 to Returned.
30338005: system.test_load_store_datapath: updateCacheRequestStatusOnResp for node_id 16240, WriteResp [d77d4:d77d7]
30338005: system.test_load_store_datapath: setting store cache queue entry for vaddr 0x2272794 to Returned.
30338006: system.test_load_store_datapath: updateCacheRequestStatusOnResp for node_id 16248, WriteResp [d77d8:d77db]
30338006: system.test_load_store_datapath: setting store cache queue entry for vaddr 0x2272798 to Returned.
30338007: system.test_load_store_datapath: updateCacheRequestStatusOnResp for node_id 16256, WriteResp [d77dc:d77df]
30338007: system.test_load_store_datapath: setting store cache queue entry for vaddr 0x227279c to Returned.
30344000: system.test_load_store_datapath: issueTLBRequestTiming for trace addr: 0x2270790
30344000: system.test_load_store_datapath: node: 16262, trace vaddr = 2270790, is translating
30344000: system.test_load_store_datapath: issueTLBRequestTiming for trace addr: 0x22707c0
30344000: system.test_load_store_datapath: node: 16358, trace vaddr = 22707c0, is translating
30346000: system.test_load_store_datapath: completeTLBRequest for paddr: 0x2270790 ReadReq
30346000: system.test_load_store_datapath: Translated: vaddr = 0x2270790, paddr = 0xd57d0
30346000: system.test_load_store_datapath: completeTLBRequest for paddr: 0x22707c0 ReadReq
30346000: system.test_load_store_datapath: Translated: vaddr = 0x22707c0, paddr = 0xd5800
30348000: system.test_load_store_datapath: node:16262, vaddr = 0x2270790, paddr = 0xd57d0 is accessing cache
30348000: system.test_load_store_datapath: node:16358, vaddr = 0x22707c0, paddr = 0xd5800 is accessing cache
30350000: system.test_load_store_datapath: updateCacheRequestStatusOnResp for node_id 16262, ReadResp [d57d0:d57d3]
30350000: system.test_load_store_datapath: setting load cache queue entry for vaddr 0x2270790 to Returned.
30350001: system.test_load_store_datapath: updateCacheRequestStatusOnResp for node_id 16358, ReadResp [d5800:d5803]
30350001: system.test_load_store_datapath: setting load cache queue entry for vaddr 0x22707c0 to Returned.
30354000: system.test_load_store_datapath: issueTLBRequestTiming for trace addr: 0x22727a0
30354000: system.test_load_store_datapath: node: 16264, trace vaddr = 22727a0, is translating
30354000: system.test_load_store_datapath: issueTLBRequestTiming for trace addr: 0x22727a4
30354000: system.test_load_store_datapath: node: 16272, trace vaddr = 22727a4, is translating
30354000: system.test_load_store_datapath: issueTLBRequestTiming for trace addr: 0x22727a8
30354000: system.test_load_store_datapath: node: 16280, trace vaddr = 22727a8, is translating
30356000: system.test_load_store_datapath: issueTLBRequestTiming for trace addr: 0x22727ac
30356000: system.test_load_store_datapath: node: 16288, trace vaddr = 22727ac, is translating
30356000: system.test_load_store_datapath: issueTLBRequestTiming for trace addr: 0x22727b0
30356000: system.test_load_store_datapath: node: 16296, trace vaddr = 22727b0, is translating
30356000: system.test_load_store_datapath: issueTLBRequestTiming for trace addr: 0x22727b4
30356000: system.test_load_store_datapath: node: 16304, trace vaddr = 22727b4, is translating
30356000: system.test_load_store_datapath: completeTLBRequest for paddr: 0x22727a0 WriteReq
30356000: system.test_load_store_datapath: Translated: vaddr = 0x22727a0, paddr = 0xd77e0
30356000: system.test_load_store_datapath: completeTLBRequest for paddr: 0x22727a4 WriteReq
30356000: system.test_load_store_datapath: Translated: vaddr = 0x22727a4, paddr = 0xd77e4
30356000: system.test_load_store_datapath: completeTLBRequest for paddr: 0x22727a8 WriteReq
30356000: system.test_load_store_datapath: Translated: vaddr = 0x22727a8, paddr = 0xd77e8
30358000: system.test_load_store_datapath: node:16264, vaddr = 0x22727a0, paddr = 0xd77e0 is accessing cache
30358000: system.test_load_store_datapath: node:16272, vaddr = 0x22727a4, paddr = 0xd77e4 is accessing cache
30358000: system.test_load_store_datapath: node:16280, vaddr = 0x22727a8, paddr = 0xd77e8 is accessing cache
30358000: system.test_load_store_datapath: issueTLBRequestTiming for trace addr: 0x22727b8
30358000: system.test_load_store_datapath: node: 16312, trace vaddr = 22727b8, is translating
30358000: system.test_load_store_datapath: issueTLBRequestTiming for trace addr: 0x22727bc
30358000: system.test_load_store_datapath: node: 16320, trace vaddr = 22727bc, is translating
30358000: system.test_load_store_datapath: issueTLBRequestTiming for trace addr: 0x22727c0
30358000: system.test_load_store_datapath: node: 16328, trace vaddr = 22727c0, is translating
30358000: system.test_load_store_datapath: completeTLBRequest for paddr: 0x22727ac WriteReq
30358000: system.test_load_store_datapath: Translated: vaddr = 0x22727ac, paddr = 0xd77ec
30358000: system.test_load_store_datapath: completeTLBRequest for paddr: 0x22727b0 WriteReq
30358000: system.test_load_store_datapath: Translated: vaddr = 0x22727b0, paddr = 0xd77f0
30358000: system.test_load_store_datapath: completeTLBRequest for paddr: 0x22727b4 WriteReq
30358000: system.test_load_store_datapath: Translated: vaddr = 0x22727b4, paddr = 0xd77f4
30360000: system.test_load_store_datapath: node:16288, vaddr = 0x22727ac, paddr = 0xd77ec is accessing cache
30360000: system.test_load_store_datapath: node:16296, vaddr = 0x22727b0, paddr = 0xd77f0 is accessing cache
30360000: system.test_load_store_datapath: node:16304, vaddr = 0x22727b4, paddr = 0xd77f4 is accessing cache
30360000: system.test_load_store_datapath: issueTLBRequestTiming for trace addr: 0x22727c4
30360000: system.test_load_store_datapath: node: 16336, trace vaddr = 22727c4, is translating
30360000: system.test_load_store_datapath: issueTLBRequestTiming for trace addr: 0x22727c8
30360000: system.test_load_store_datapath: node: 16344, trace vaddr = 22727c8, is translating
30360000: system.test_load_store_datapath: issueTLBRequestTiming for trace addr: 0x22727cc
30360000: system.test_load_store_datapath: node: 16352, trace vaddr = 22727cc, is translating
30360000: system.test_load_store_datapath: completeTLBRequest for paddr: 0x22727b8 WriteReq
30360000: system.test_load_store_datapath: Translated: vaddr = 0x22727b8, paddr = 0xd77f8
30360000: system.test_load_store_datapath: completeTLBRequest for paddr: 0x22727bc WriteReq
30360000: system.test_load_store_datapath: Translated: vaddr = 0x22727bc, paddr = 0xd77fc
30360000: system.test_load_store_datapath: completeTLBRequest for paddr: 0x22727c0 WriteReq
30360000: system.test_load_store_datapath: Translated: vaddr = 0x22727c0, paddr = 0xd7800
30360000: system.test_load_store_datapath: updateCacheRequestStatusOnResp for node_id 16264, WriteResp [d77e0:d77e3]
30360000: system.test_load_store_datapath: setting store cache queue entry for vaddr 0x22727a0 to Returned.
30360001: system.test_load_store_datapath: updateCacheRequestStatusOnResp for node_id 16272, WriteResp [d77e4:d77e7]
30360001: system.test_load_store_datapath: setting store cache queue entry for vaddr 0x22727a4 to Returned.
30360002: system.test_load_store_datapath: updateCacheRequestStatusOnResp for node_id 16280, WriteResp [d77e8:d77eb]
30360002: system.test_load_store_datapath: setting store cache queue entry for vaddr 0x22727a8 to Returned.
30362000: system.test_load_store_datapath: updateCacheRequestStatusOnResp for node_id 16288, WriteResp [d77ec:d77ef]
30362000: system.test_load_store_datapath: setting store cache queue entry for vaddr 0x22727ac to Returned.
30362000: system.test_load_store_datapath: node:16312, vaddr = 0x22727b8, paddr = 0xd77f8 is accessing cache
30362000: system.test_load_store_datapath: node:16320, vaddr = 0x22727bc, paddr = 0xd77fc is accessing cache
30362000: system.test_load_store_datapath: node:16328, vaddr = 0x22727c0, paddr = 0xd7800 is accessing cache
30362000: system.test_load_store_datapath: issueTLBRequestTiming for trace addr: 0x22727d0
30362000: system.test_load_store_datapath: node: 16360, trace vaddr = 22727d0, is translating
30362000: system.test_load_store_datapath: issueTLBRequestTiming for trace addr: 0x22727d4
30362000: system.test_load_store_datapath: node: 16368, trace vaddr = 22727d4, is translating
30362000: system.test_load_store_datapath: issueTLBRequestTiming for trace addr: 0x22727d8
30362000: system.test_load_store_datapath: node: 16376, trace vaddr = 22727d8, is translating
30362000: system.test_load_store_datapath: completeTLBRequest for paddr: 0x22727c4 WriteReq
30362000: system.test_load_store_datapath: Translated: vaddr = 0x22727c4, paddr = 0xd7804
30362000: system.test_load_store_datapath: completeTLBRequest for paddr: 0x22727c8 WriteReq
30362000: system.test_load_store_datapath: Translated: vaddr = 0x22727c8, paddr = 0xd7808
30362000: system.test_load_store_datapath: completeTLBRequest for paddr: 0x22727cc WriteReq
30362000: system.test_load_store_datapath: Translated: vaddr = 0x22727cc, paddr = 0xd780c
30362001: system.test_load_store_datapath: updateCacheRequestStatusOnResp for node_id 16296, WriteResp [d77f0:d77f3]
30362001: system.test_load_store_datapath: setting store cache queue entry for vaddr 0x22727b0 to Returned.
30362002: system.test_load_store_datapath: updateCacheRequestStatusOnResp for node_id 16304, WriteResp [d77f4:d77f7]
30362002: system.test_load_store_datapath: setting store cache queue entry for vaddr 0x22727b4 to Returned.
30364000: system.test_load_store_datapath: updateCacheRequestStatusOnResp for node_id 16312, WriteResp [d77f8:d77fb]
30364000: system.test_load_store_datapath: setting store cache queue entry for vaddr 0x22727b8 to Returned.
30364000: system.test_load_store_datapath: node:16336, vaddr = 0x22727c4, paddr = 0xd7804 is accessing cache
30364000: system.test_load_store_datapath: node:16344, vaddr = 0x22727c8, paddr = 0xd7808 is accessing cache
30364000: system.test_load_store_datapath: node:16352, vaddr = 0x22727cc, paddr = 0xd780c is accessing cache
30364000: system.test_load_store_datapath: issueTLBRequestTiming for trace addr: 0x22727dc
30364000: system.test_load_store_datapath: node: 16384, trace vaddr = 22727dc, is translating
30364000: system.test_load_store_datapath: completeTLBRequest for paddr: 0x22727d0 WriteReq
30364000: system.test_load_store_datapath: Translated: vaddr = 0x22727d0, paddr = 0xd7810
30364000: system.test_load_store_datapath: completeTLBRequest for paddr: 0x22727d4 WriteReq
30364000: system.test_load_store_datapath: Translated: vaddr = 0x22727d4, paddr = 0xd7814
30364000: system.test_load_store_datapath: completeTLBRequest for paddr: 0x22727d8 WriteReq
30364000: system.test_load_store_datapath: Translated: vaddr = 0x22727d8, paddr = 0xd7818
30364001: system.test_load_store_datapath: updateCacheRequestStatusOnResp for node_id 16320, WriteResp [d77fc:d77ff]
30364001: system.test_load_store_datapath: setting store cache queue entry for vaddr 0x22727bc to Returned.
30366000: system.test_load_store_datapath: node:16360, vaddr = 0x22727d0, paddr = 0xd7810 is accessing cache
30366000: system.test_load_store_datapath: node:16368, vaddr = 0x22727d4, paddr = 0xd7814 is accessing cache
30366000: system.test_load_store_datapath: node:16376, vaddr = 0x22727d8, paddr = 0xd7818 is accessing cache
30366000: system.test_load_store_datapath: completeTLBRequest for paddr: 0x22727dc WriteReq
30366000: system.test_load_store_datapath: Translated: vaddr = 0x22727dc, paddr = 0xd781c
30368000: system.test_load_store_datapath: node:16384, vaddr = 0x22727dc, paddr = 0xd781c is accessing cache
30378000: system.test_load_store_datapath: updateCacheRequestStatusOnResp for node_id 16328, WriteResp [d7800:d7803]
30378000: system.test_load_store_datapath: setting store cache queue entry for vaddr 0x22727c0 to Returned.
30378001: system.test_load_store_datapath: updateCacheRequestStatusOnResp for node_id 16336, WriteResp [d7804:d7807]
30378001: system.test_load_store_datapath: setting store cache queue entry for vaddr 0x22727c4 to Returned.
30378002: system.test_load_store_datapath: updateCacheRequestStatusOnResp for node_id 16344, WriteResp [d7808:d780b]
30378002: system.test_load_store_datapath: setting store cache queue entry for vaddr 0x22727c8 to Returned.
30378003: system.test_load_store_datapath: updateCacheRequestStatusOnResp for node_id 16352, WriteResp [d780c:d780f]
30378003: system.test_load_store_datapath: setting store cache queue entry for vaddr 0x22727cc to Returned.
30378004: system.test_load_store_datapath: updateCacheRequestStatusOnResp for node_id 16360, WriteResp [d7810:d7813]
30378004: system.test_load_store_datapath: setting store cache queue entry for vaddr 0x22727d0 to Returned.
30378005: system.test_load_store_datapath: updateCacheRequestStatusOnResp for node_id 16368, WriteResp [d7814:d7817]
30378005: system.test_load_store_datapath: setting store cache queue entry for vaddr 0x22727d4 to Returned.
30378006: system.test_load_store_datapath: updateCacheRequestStatusOnResp for node_id 16376, WriteResp [d7818:d781b]
30378006: system.test_load_store_datapath: setting store cache queue entry for vaddr 0x22727d8 to Returned.
30378007: system.test_load_store_datapath: updateCacheRequestStatusOnResp for node_id 16384, WriteResp [d781c:d781f]
30378007: system.test_load_store_datapath: setting store cache queue entry for vaddr 0x22727dc to Returned.
30384000: system.test_load_store_datapath: Invoking CACTI for cache power and area estimates.
Cache size                    : 32768
Block size                    : 8
Associativity                 : 4
Read only ports               : 1
Write only ports              : 3
Read write ports              : 0
Single ended read ports       : 0
Cache banks (UCA)             : 2
Technology                    : 0.04
User specified HP   Vdd (v)?  : false
User specified LSTP Vdd (v)?  : false
User specified LOP  Vdd (v)?  : false
Temperature                   : 300
Tag size                      : 42
array type                    : Cache
Model as memory               : false
Access mode                   : 0
Data array cell type          : 0
Data array peripheral type    : 0
Tag array cell type           : 0
Tag array peripheral type     : 0
Optimization target           : 0
Design objective (UCA wt)     : 0 0 0 100 0
Design objective (UCA dev)    : 20 100000 100000 100000 100000
Cache model                   : 0
Nuca bank                     : 0
Wire inside mat               : 1
Wire outside mat              : 1
Interconnect projection       : 1
Wire signalling               : 1
Print level                   : 1
ECC overhead                  : true
Page size                     : 8192
Burst length                  : 8
Internal prefetch width       : 8
Force cache config            : false
Placing subarray out driver vertical?     : true
Cache size                    : 256
Block size                    : 4
Associativity                 : 0
Read only ports               : 3
Write only ports              : 1
Read write ports              : 0
Single ended read ports       : 0
Search ports                  : 3
Cache banks (UCA)             : 1
Technology                    : 0.04
User specified HP   Vdd (v)?  : false
User specified LSTP Vdd (v)?  : false
User specified LOP  Vdd (v)?  : false
Temperature                   : 300
Tag size                      : 42
array type                    : Cache
Model as memory               : false
Access mode                   : 0
Data array cell type          : 0
Data array peripheral type    : 0
Tag array cell type           : 0
Tag array peripheral type     : 0
Optimization target           : 0
Design objective (UCA wt)     : 0 0 0 100 0
Design objective (UCA dev)    : 20 100000 100000 100000 100000
Cache model                   : 0
Nuca bank                     : 0
Wire inside mat               : 1
Wire outside mat              : 1
Interconnect projection       : 1
Wire signalling               : 1
Print level                   : 1
ECC overhead                  : true
Page size                     : 8192
Burst length                  : 8
Internal prefetch width       : 8
Force cache config            : false
Placing subarray out driver vertical?     : true
===============================
        Aladdin Results        
===============================
Running : ./outputs/test_load_store
Top level function: store_kernel
Cycle : 3018 cycles
Upsampled Cycle : 0 cycles
Avg Power: 21.6092 mW
Idle FU Cycles: 3018 cycles
Avg FU Power: 0.450529 mW
Avg FU Dynamic Power: 0.391367 mW
Avg FU leakage Power: 0.0591625 mW
Avg MEM Power: 21.1586 mW
Avg MEM Dynamic Power: 17.2461 mW
Avg MEM Leakage Power: 3.9125 mW
Total Area: 737705 uM^2
FU Area: 4785.15 uM^2
MEM Area: 732920 uM^2
Num of Registers (32-bit): 25
===============================
        Aladdin Results        
===============================
30384000: system.test_load_store_datapath: Accelerator completed.
30384000: system.test_load_store_datapath: Elapsed host seconds 0.38.
30384000: system.test_load_store_datapath: Sent finished signal.
30400000: system.test_load_store_datapath: cacheRespCallback for control signal access: 0xd9860
30402000: system.test_load_store_datapath: Woken up the CPU thread context.
Accelerator finished!
Test passed!
Exiting @ tick 41969000 because exiting with last active thread context
